# generated using pymatgen
data_Ag9As3HPt4O
_symmetry_space_group_name_H-M   'P 1'
_cell_length_a   5.89508684
_cell_length_b   5.89508684
_cell_length_c   22.21997737
_cell_angle_alpha   90.00000000
_cell_angle_beta   90.00000000
_cell_angle_gamma   120.00000000
_symmetry_Int_Tables_number   1
_chemical_formula_structural   Ag9As3HPt4O
_chemical_formula_sum   'Ag9 As3 H1 Pt4 O1'
_cell_volume   668.73593067
_cell_formula_units_Z   1
loop_
 _symmetry_equiv_pos_site_id
 _symmetry_equiv_pos_as_xyz
  1  'x, y, z'
loop_
 _atom_site_type_symbol
 _atom_site_label
 _atom_site_symmetry_multiplicity
 _atom_site_fract_x
 _atom_site_fract_y
 _atom_site_fract_z
 _atom_site_occupancy
  Ag  Ag0  1  0.000000  0.000000  0.337534  1
  Ag  Ag1  1  0.500000  0.000000  0.337534  1
  Ag  Ag2  1  0.500000  0.500000  0.337534  1
  As  As3  1  0.000000  0.500000  0.337534  1
  Ag  Ag4  1  0.666667  0.333333  0.445845  1
  Ag  Ag5  1  0.166667  0.333333  0.445845  1
  Ag  Ag6  1  0.166667  0.833333  0.445845  1
  As  As7  1  0.666667  0.833333  0.445845  1
  Ag  Ag8  1  0.334120  0.666424  0.554640  1
  Ag  Ag9  1  0.832303  0.666424  0.554640  1
  Ag  Ag10  1  0.832827  0.165654  0.553906  1
  As  As11  1  0.348282  0.196563  0.591096  1
  Pt  Pt12  1  -0.012982  -0.012065  0.662213  1
  Pt  Pt13  1  0.500917  -0.012065  0.662213  1
  Pt  Pt14  1  0.508074  0.516147  0.670728  1
  Pt  Pt15  1  -0.002222  0.495555  0.659231  1
  O  O16  1  0.555943  0.611886  0.760884  1
  H  H17  1  0.649767  0.799535  0.769523  1
