# generated using pymatgen
data_Ag12HPt4O
_symmetry_space_group_name_H-M   'P 1'
_cell_length_a   5.86417685
_cell_length_b   5.86417685
_cell_length_c   22.18212052
_cell_angle_alpha   90.00000000
_cell_angle_beta   90.00000000
_cell_angle_gamma   120.00000000
_symmetry_Int_Tables_number   1
_chemical_formula_structural   Ag12HPt4O
_chemical_formula_sum   'Ag12 H1 Pt4 O1'
_cell_volume   660.61405675
_cell_formula_units_Z   1
loop_
 _symmetry_equiv_pos_site_id
 _symmetry_equiv_pos_as_xyz
  1  'x, y, z'
loop_
 _atom_site_type_symbol
 _atom_site_label
 _atom_site_symmetry_multiplicity
 _atom_site_fract_x
 _atom_site_fract_y
 _atom_site_fract_z
 _atom_site_occupancy
  Ag  Ag0  1  0.000000  0.000000  0.338110  1
  Ag  Ag1  1  0.500000  0.000000  0.338110  1
  Ag  Ag2  1  0.500000  0.500000  0.338110  1
  Ag  Ag3  1  0.000000  0.500000  0.338110  1
  Ag  Ag4  1  0.666667  0.333333  0.446037  1
  Ag  Ag5  1  0.166667  0.333333  0.446037  1
  Ag  Ag6  1  0.166667  0.833333  0.446037  1
  Ag  Ag7  1  0.666667  0.833333  0.446037  1
  Ag  Ag8  1  0.331991  0.659048  0.555807  1
  Ag  Ag9  1  0.827058  0.659048  0.555807  1
  Ag  Ag10  1  0.830558  0.161116  0.554482  1
  Ag  Ag11  1  0.331675  0.163349  0.555513  1
  Pt  Pt12  1  -0.002659  -0.005684  0.659012  1
  Pt  Pt13  1  0.496975  -0.005684  0.659012  1
  Pt  Pt14  1  0.496678  0.493357  0.664814  1
  Pt  Pt15  1  0.996511  0.493021  0.658994  1
  O  O16  1  0.492940  0.485880  0.755036  1
  H  H17  1  0.585180  0.670361  0.767903  1
