# generated using pymatgen
data_Al3Ag9HPt4O
_symmetry_space_group_name_H-M   'P 1'
_cell_length_a   5.78849026
_cell_length_b   5.78849026
_cell_length_c   22.08942376
_cell_angle_alpha   90.00000000
_cell_angle_beta   90.00000000
_cell_angle_gamma   120.00000000
_symmetry_Int_Tables_number   1
_chemical_formula_structural   Al3Ag9HPt4O
_chemical_formula_sum   'Al3 Ag9 H1 Pt4 O1'
_cell_volume   640.98170300
_cell_formula_units_Z   1
loop_
 _symmetry_equiv_pos_site_id
 _symmetry_equiv_pos_as_xyz
  1  'x, y, z'
loop_
 _atom_site_type_symbol
 _atom_site_label
 _atom_site_symmetry_multiplicity
 _atom_site_fract_x
 _atom_site_fract_y
 _atom_site_fract_z
 _atom_site_occupancy
  Ag  Ag0  1  0.000000  0.000000  0.339529  1
  Ag  Ag1  1  0.500000  0.000000  0.339529  1
  Ag  Ag2  1  0.500000  0.500000  0.339529  1
  Al  Al3  1  -0.000000  0.500000  0.339529  1
  Ag  Ag4  1  0.666667  0.333333  0.446510  1
  Ag  Ag5  1  0.166667  0.333333  0.446510  1
  Ag  Ag6  1  0.166667  0.833333  0.446510  1
  Al  Al7  1  0.666667  0.833333  0.446510  1
  Ag  Ag8  1  0.337680  0.666447  0.553896  1
  Ag  Ag9  1  0.828767  0.666447  0.553896  1
  Ag  Ag10  1  0.832504  0.165007  0.552800  1
  Al  Al11  1  0.337099  0.174198  0.578063  1
  Pt  Pt12  1  1.001257  0.004577  0.660037  1
  Pt  Pt13  1  0.503320  0.004579  0.660037  1
  Pt  Pt14  1  0.507457  0.514914  0.663593  1
  Pt  Pt15  1  1.001666  0.503332  0.659528  1
  O  O16  1  0.478341  0.456681  0.755353  1
  H  H17  1  0.566698  0.633394  0.774161  1
