# generated using pymatgen
data_Cr3Ag9HPt4O
_symmetry_space_group_name_H-M   'P 1'
_cell_length_a   5.85299154
_cell_length_b   5.85299154
_cell_length_c   22.16842138
_cell_angle_alpha   90.00000000
_cell_angle_beta   90.00000000
_cell_angle_gamma   120.00000000
_symmetry_Int_Tables_number   1
_chemical_formula_structural   Cr3Ag9HPt4O
_chemical_formula_sum   'Cr3 Ag9 H1 Pt4 O1'
_cell_volume   657.68993100
_cell_formula_units_Z   1
loop_
 _symmetry_equiv_pos_site_id
 _symmetry_equiv_pos_as_xyz
  1  'x, y, z'
loop_
 _atom_site_type_symbol
 _atom_site_label
 _atom_site_symmetry_multiplicity
 _atom_site_fract_x
 _atom_site_fract_y
 _atom_site_fract_z
 _atom_site_occupancy
  Ag  Ag0  1  0.000000  0.000000  0.338319  1
  Ag  Ag1  1  0.500000  0.000000  0.338319  1
  Ag  Ag2  1  0.500000  0.500000  0.338319  1
  Cr  Cr3  1  0.000000  0.500000  0.338319  1
  Ag  Ag4  1  0.666667  0.333333  0.446106  1
  Ag  Ag5  1  0.166667  0.333333  0.446106  1
  Ag  Ag6  1  0.166667  0.833333  0.446106  1
  Cr  Cr7  1  0.666667  0.833333  0.446106  1
  Ag  Ag8  1  0.335200  0.664259  0.551789  1
  Ag  Ag9  1  0.829059  0.664259  0.551789  1
  Ag  Ag10  1  0.832822  0.165644  0.550717  1
  Cr  Cr11  1  0.338074  0.176148  0.574857  1
  Pt  Pt12  1  1.005757  0.003307  0.654711  1
  Pt  Pt13  1  0.497549  0.003307  0.654711  1
  Pt  Pt14  1  0.508123  0.516246  0.658259  1
  Pt  Pt15  1  -0.001963  0.496074  0.656082  1
  O  O16  1  0.515309  0.530617  0.750684  1
  H  H17  1  0.607009  0.714018  0.764453  1
