# generated using pymatgen
data_Co3Ag9HPt4O
_symmetry_space_group_name_H-M   'P 1'
_cell_length_a   5.68934906
_cell_length_b   5.68934906
_cell_length_c   21.96800108
_cell_angle_alpha   90.00000000
_cell_angle_beta   90.00000000
_cell_angle_gamma   120.00000000
_symmetry_Int_Tables_number   1
_chemical_formula_structural   Co3Ag9HPt4O
_chemical_formula_sum   'Co3 Ag9 H1 Pt4 O1'
_cell_volume   615.80942716
_cell_formula_units_Z   1
loop_
 _symmetry_equiv_pos_site_id
 _symmetry_equiv_pos_as_xyz
  1  'x, y, z'
loop_
 _atom_site_type_symbol
 _atom_site_label
 _atom_site_symmetry_multiplicity
 _atom_site_fract_x
 _atom_site_fract_y
 _atom_site_fract_z
 _atom_site_occupancy
  Ag  Ag0  1  0.000000  0.000000  0.341406  1
  Ag  Ag1  1  0.500000  0.000000  0.341406  1
  Ag  Ag2  1  0.500000  0.500000  0.341406  1
  Co  Co3  1  -0.000000  0.500000  0.341406  1
  Ag  Ag4  1  0.666667  0.333333  0.447135  1
  Ag  Ag5  1  0.166667  0.333333  0.447135  1
  Ag  Ag6  1  0.166667  0.833333  0.447135  1
  Co  Co7  1  0.666667  0.833333  0.447135  1
  Ag  Ag8  1  0.333041  0.657097  0.554367  1
  Ag  Ag9  1  0.824056  0.657097  0.554367  1
  Ag  Ag10  1  0.828080  0.156160  0.552855  1
  Co  Co11  1  0.329761  0.159522  0.565855  1
  Pt  Pt12  1  0.006001  0.004424  0.659362  1
  Pt  Pt13  1  0.498423  0.004424  0.659362  1
  Pt  Pt14  1  0.498728  0.497455  0.665798  1
  Pt  Pt15  1  -0.000617  0.498766  0.661218  1
  O  O16  1  0.514040  0.528080  0.757988  1
  H  H17  1  0.610558  0.721117  0.768623  1
