# generated using pymatgen
data_Cu3Ag9HPt4O
_symmetry_space_group_name_H-M   'P 1'
_cell_length_a   5.70903795
_cell_length_b   5.70903795
_cell_length_c   21.99211495
_cell_angle_alpha   90.00000000
_cell_angle_beta   90.00000000
_cell_angle_gamma   120.00000000
_symmetry_Int_Tables_number   1
_chemical_formula_structural   Cu3Ag9HPt4O
_chemical_formula_sum   'Cu3 Ag9 H1 Pt4 O1'
_cell_volume   620.75966279
_cell_formula_units_Z   1
loop_
 _symmetry_equiv_pos_site_id
 _symmetry_equiv_pos_as_xyz
  1  'x, y, z'
loop_
 _atom_site_type_symbol
 _atom_site_label
 _atom_site_symmetry_multiplicity
 _atom_site_fract_x
 _atom_site_fract_y
 _atom_site_fract_z
 _atom_site_occupancy
  Ag  Ag0  1  0.000000  0.000000  0.341031  1
  Ag  Ag1  1  0.500000  0.000000  0.341031  1
  Ag  Ag2  1  0.500000  0.500000  0.341031  1
  Cu  Cu3  1  -0.000000  0.500000  0.341031  1
  Ag  Ag4  1  0.666667  0.333333  0.447010  1
  Ag  Ag5  1  0.166667  0.333333  0.447010  1
  Ag  Ag6  1  0.166667  0.833333  0.447010  1
  Cu  Cu7  1  0.666667  0.833333  0.447010  1
  Ag  Ag8  1  0.331065  0.655318  0.554016  1
  Ag  Ag9  1  0.824254  0.655318  0.554016  1
  Ag  Ag10  1  0.827130  0.154260  0.552115  1
  Cu  Cu11  1  0.331009  0.162019  0.560958  1
  Pt  Pt12  1  0.001209  -0.003060  0.658091  1
  Pt  Pt13  1  0.495731  -0.003060  0.658091  1
  Pt  Pt14  1  0.496500  0.493001  0.664615  1
  Pt  Pt15  1  -0.003500  0.492999  0.659918  1
  O  O16  1  0.494619  0.489238  0.756287  1
  H  H17  1  0.589541  0.679082  0.768997  1
