# generated using pymatgen
data_Fe3Ag9HPt4O
_symmetry_space_group_name_H-M   'P 1'
_cell_length_a   5.76275756
_cell_length_b   5.76275756
_cell_length_c   22.05790777
_cell_angle_alpha   90.00000000
_cell_angle_beta   90.00000000
_cell_angle_gamma   120.00000000
_symmetry_Int_Tables_number   1
_chemical_formula_structural   Fe3Ag9HPt4O
_chemical_formula_sum   'Fe3 Ag9 H1 Pt4 O1'
_cell_volume   634.38900367
_cell_formula_units_Z   1
loop_
 _symmetry_equiv_pos_site_id
 _symmetry_equiv_pos_as_xyz
  1  'x, y, z'
loop_
 _atom_site_type_symbol
 _atom_site_label
 _atom_site_symmetry_multiplicity
 _atom_site_fract_x
 _atom_site_fract_y
 _atom_site_fract_z
 _atom_site_occupancy
  Ag  Ag0  1  0.000000  0.000000  0.340014  1
  Ag  Ag1  1  0.500000  0.000000  0.340014  1
  Ag  Ag2  1  0.500000  0.500000  0.340014  1
  Fe  Fe3  1  -0.000000  0.500000  0.340014  1
  Ag  Ag4  1  0.666667  0.333333  0.446671  1
  Ag  Ag5  1  0.166667  0.333333  0.446671  1
  Ag  Ag6  1  0.166667  0.833333  0.446671  1
  Fe  Fe7  1  0.666667  0.833333  0.446671  1
  Ag  Ag8  1  0.334968  0.662868  0.553484  1
  Ag  Ag9  1  0.827900  0.662868  0.553484  1
  Ag  Ag10  1  0.830431  0.160861  0.551903  1
  Fe  Fe11  1  0.335966  0.171932  0.574864  1
  Pt  Pt12  1  0.000694  0.004466  0.659035  1
  Pt  Pt13  1  0.503772  0.004466  0.659035  1
  Pt  Pt14  1  0.505908  0.511815  0.663602  1
  Pt  Pt15  1  0.001574  0.503148  0.659237  1
  O  O16  1  0.510653  0.521306  0.756072  1
  H  H17  1  0.604076  0.708151  0.769556  1
