# generated using pymatgen
data_Ag9Ge3HPt4O
_symmetry_space_group_name_H-M   'P 1'
_cell_length_a   5.87537393
_cell_length_b   5.87537393
_cell_length_c   22.19583409
_cell_angle_alpha   90.00000000
_cell_angle_beta   90.00000000
_cell_angle_gamma   120.00000000
_symmetry_Int_Tables_number   1
_chemical_formula_structural   Ag9Ge3HPt4O
_chemical_formula_sum   'Ag9 Ge3 H1 Pt4 O1'
_cell_volume   663.54919237
_cell_formula_units_Z   1
loop_
 _symmetry_equiv_pos_site_id
 _symmetry_equiv_pos_as_xyz
  1  'x, y, z'
loop_
 _atom_site_type_symbol
 _atom_site_label
 _atom_site_symmetry_multiplicity
 _atom_site_fract_x
 _atom_site_fract_y
 _atom_site_fract_z
 _atom_site_occupancy
  Ag  Ag0  1  0.000000  0.000000  0.337901  1
  Ag  Ag1  1  0.500000  0.000000  0.337901  1
  Ag  Ag2  1  0.500000  0.500000  0.337901  1
  Ge  Ge3  1  0.000000  0.500000  0.337901  1
  Ag  Ag4  1  0.666667  0.333333  0.445967  1
  Ag  Ag5  1  0.166667  0.333333  0.445967  1
  Ag  Ag6  1  0.166667  0.833333  0.445967  1
  Ge  Ge7  1  0.666667  0.833333  0.445967  1
  Ag  Ag8  1  0.331519  0.656294  0.555293  1
  Ag  Ag9  1  0.824774  0.656294  0.555293  1
  Ag  Ag10  1  0.829734  0.159468  0.553776  1
  Ge  Ge11  1  0.328336  0.156671  0.581681  1
  Pt  Pt12  1  -0.012996  -0.011515  0.661328  1
  Pt  Pt13  1  0.501481  -0.011515  0.661328  1
  Pt  Pt14  1  0.500336  0.500671  0.664909  1
  Pt  Pt15  1  -0.004342  0.491317  0.659617  1
  O  O16  1  0.493716  0.487431  0.756692  1
  H  H17  1  0.584188  0.668376  0.771636  1
