# generated using pymatgen
data_Ga3Ag9HPt4O
_symmetry_space_group_name_H-M   'P 1'
_cell_length_a   5.83330525
_cell_length_b   5.83330525
_cell_length_c   22.14431069
_cell_angle_alpha   90.00000000
_cell_angle_beta   90.00000000
_cell_angle_gamma   120.00000000
_symmetry_Int_Tables_number   1
_chemical_formula_structural   Ga3Ag9HPt4O
_chemical_formula_sum   'Ga3 Ag9 H1 Pt4 O1'
_cell_volume   652.56263739
_cell_formula_units_Z   1
loop_
 _symmetry_equiv_pos_site_id
 _symmetry_equiv_pos_as_xyz
  1  'x, y, z'
loop_
 _atom_site_type_symbol
 _atom_site_label
 _atom_site_symmetry_multiplicity
 _atom_site_fract_x
 _atom_site_fract_y
 _atom_site_fract_z
 _atom_site_occupancy
  Ag  Ag0  1  0.000000  0.000000  0.338687  1
  Ag  Ag1  1  0.500000  0.000000  0.338687  1
  Ag  Ag2  1  0.500000  0.500000  0.338687  1
  Ga  Ga3  1  -0.000000  0.500000  0.338687  1
  Ag  Ag4  1  0.666667  0.333333  0.446229  1
  Ag  Ag5  1  0.166667  0.333333  0.446229  1
  Ag  Ag6  1  0.166667  0.833333  0.446229  1
  Ga  Ga7  1  0.666667  0.833333  0.446229  1
  Ag  Ag8  1  0.336457  0.667967  0.554259  1
  Ag  Ag9  1  0.831510  0.667967  0.554259  1
  Ag  Ag10  1  0.834038  0.168076  0.552932  1
  Ga  Ga11  1  0.339501  0.179002  0.574837  1
  Pt  Pt12  1  0.999983  1.004557  0.659261  1
  Pt  Pt13  1  0.504574  1.004557  0.659261  1
  Pt  Pt14  1  0.508717  0.517434  0.663659  1
  Pt  Pt15  1  1.001840  0.503680  0.659233  1
  O  O16  1  0.492929  0.485857  0.755349  1
  H  H17  1  0.583397  0.666793  0.771133  1
