# generated using pymatgen
data_In3Ag9HPt4O
_symmetry_space_group_name_H-M   'P 1'
_cell_length_a   6.11285162
_cell_length_b   6.11285162
_cell_length_c   22.48668368
_cell_angle_alpha   90.00000000
_cell_angle_beta   90.00000000
_cell_angle_gamma   120.00000000
_symmetry_Int_Tables_number   1
_chemical_formula_structural   In3Ag9HPt4O
_chemical_formula_sum   'In3 Ag9 H1 Pt4 O1'
_cell_volume   727.68555021
_cell_formula_units_Z   1
loop_
 _symmetry_equiv_pos_site_id
 _symmetry_equiv_pos_as_xyz
  1  'x, y, z'
loop_
 _atom_site_type_symbol
 _atom_site_label
 _atom_site_symmetry_multiplicity
 _atom_site_fract_x
 _atom_site_fract_y
 _atom_site_fract_z
 _atom_site_occupancy
  Ag  Ag0  1  0.000000  0.000000  0.333531  1
  Ag  Ag1  1  0.500000  0.000000  0.333531  1
  Ag  Ag2  1  0.500000  0.500000  0.333531  1
  In  In3  1  -0.000000  0.500000  0.333531  1
  Ag  Ag4  1  0.666667  0.333333  0.444510  1
  Ag  Ag5  1  0.166667  0.333333  0.444510  1
  Ag  Ag6  1  0.166667  0.833333  0.444510  1
  In  In7  1  0.666667  0.833333  0.444510  1
  Ag  Ag8  1  0.334585  0.666030  0.552312  1
  Ag  Ag9  1  0.831445  0.666030  0.552312  1
  Ag  Ag10  1  0.836977  0.173954  0.549834  1
  In  In11  1  0.337802  0.175605  0.564955  1
  Pt  Pt12  1  -0.019208  -0.003146  0.652406  1
  Pt  Pt13  1  0.516061  0.996854  0.652406  1
  Pt  Pt14  1  0.514668  0.529336  0.658133  1
  Pt  Pt15  1  -0.000881  0.498239  0.651602  1
  O  O16  1  0.485149  0.470297  0.746687  1
  H  H17  1  0.568203  0.636406  0.765768  1
