# generated using pymatgen
data_La3Ag9HPt4O
_symmetry_space_group_name_H-M   'P 1'
_cell_length_a   6.47562176
_cell_length_b   6.47562176
_cell_length_c   22.93098454
_cell_angle_alpha   90.00000000
_cell_angle_beta   90.00000000
_cell_angle_gamma   120.00000000
_symmetry_Int_Tables_number   1
_chemical_formula_structural   La3Ag9HPt4O
_chemical_formula_sum   'La3 Ag9 H1 Pt4 O1'
_cell_volume   832.75314341
_cell_formula_units_Z   1
loop_
 _symmetry_equiv_pos_site_id
 _symmetry_equiv_pos_as_xyz
  1  'x, y, z'
loop_
 _atom_site_type_symbol
 _atom_site_label
 _atom_site_symmetry_multiplicity
 _atom_site_fract_x
 _atom_site_fract_y
 _atom_site_fract_z
 _atom_site_occupancy
  Ag  Ag0  1  0.000000  0.000000  0.327068  1
  Ag  Ag1  1  0.500000  0.000000  0.327068  1
  Ag  Ag2  1  0.500000  0.500000  0.327068  1
  La  La3  1  -0.000000  0.500000  0.327068  1
  Ag  Ag4  1  0.666667  0.333333  0.442356  1
  Ag  Ag5  1  0.166667  0.333333  0.442356  1
  Ag  Ag6  1  0.166667  0.833333  0.442356  1
  La  La7  1  0.666667  0.833333  0.442356  1
  Ag  Ag8  1  0.325424  0.698693  0.555811  1
  Ag  Ag9  1  0.873270  0.698693  0.555811  1
  Ag  Ag10  1  0.857907  0.215814  0.542774  1
  La  La11  1  0.365192  0.230384  0.577547  1
  Pt  Pt12  1  -0.022900  0.035642  0.646041  1
  Pt  Pt13  1  0.558542  1.035642  0.646041  1
  Pt  Pt14  1  0.561152  0.622303  0.657899  1
  Pt  Pt15  1  -0.019832  0.460336  0.646951  1
  O  O16  1  0.475588  0.451177  0.734301  1
  H  H17  1  0.538659  0.577317  0.763837  1
