# generated using pymatgen
data_Mn3Ag9HPt4O
_symmetry_space_group_name_H-M   'P 1'
_cell_length_a   5.81970970
_cell_length_b   5.81970970
_cell_length_c   22.12765961
_cell_angle_alpha   90.00000000
_cell_angle_beta   90.00000000
_cell_angle_gamma   120.00000000
_symmetry_Int_Tables_number   1
_chemical_formula_structural   Mn3Ag9HPt4O
_chemical_formula_sum   'Mn3 Ag9 H1 Pt4 O1'
_cell_volume   649.03595598
_cell_formula_units_Z   1
loop_
 _symmetry_equiv_pos_site_id
 _symmetry_equiv_pos_as_xyz
  1  'x, y, z'
loop_
 _atom_site_type_symbol
 _atom_site_label
 _atom_site_symmetry_multiplicity
 _atom_site_fract_x
 _atom_site_fract_y
 _atom_site_fract_z
 _atom_site_occupancy
  Ag  Ag0  1  0.000000  0.000000  0.338942  1
  Ag  Ag1  1  0.500000  0.000000  0.338942  1
  Ag  Ag2  1  0.500000  0.500000  0.338942  1
  Mn  Mn3  1  0.000000  0.500000  0.338942  1
  Ag  Ag4  1  0.666667  0.333333  0.446314  1
  Ag  Ag5  1  0.166667  0.333333  0.446314  1
  Ag  Ag6  1  0.166667  0.833333  0.446314  1
  Mn  Mn7  1  0.666667  0.833333  0.446314  1
  Ag  Ag8  1  0.341219  0.671736  0.551760  1
  Ag  Ag9  1  0.830518  0.671736  0.551760  1
  Ag  Ag10  1  0.834703  0.169405  0.550790  1
  Mn  Mn11  1  0.337267  0.174533  0.565653  1
  Pt  Pt12  1  0.011053  0.018338  0.655868  1
  Pt  Pt13  1  0.507285  0.018338  0.655868  1
  Pt  Pt14  1  0.513030  0.526059  0.659479  1
  Pt  Pt15  1  0.007485  0.514969  0.655589  1
  O  O16  1  0.500827  0.501655  0.751128  1
  H  H17  1  0.592234  0.684468  0.766089  1
