# generated using pymatgen
data_Ag9Mo3HPt4O
_symmetry_space_group_name_H-M   'P 1'
_cell_length_a   5.87995620
_cell_length_b   5.87995620
_cell_length_c   22.20144620
_cell_angle_alpha   90.00000000
_cell_angle_beta   90.00000000
_cell_angle_gamma   120.00000000
_symmetry_Int_Tables_number   1
_chemical_formula_structural   Ag9Mo3HPt4O
_chemical_formula_sum   'Ag9 Mo3 H1 Pt4 O1'
_cell_volume   664.75265185
_cell_formula_units_Z   1
loop_
 _symmetry_equiv_pos_site_id
 _symmetry_equiv_pos_as_xyz
  1  'x, y, z'
loop_
 _atom_site_type_symbol
 _atom_site_label
 _atom_site_symmetry_multiplicity
 _atom_site_fract_x
 _atom_site_fract_y
 _atom_site_fract_z
 _atom_site_occupancy
  Ag  Ag0  1  0.000000  0.000000  0.337816  1
  Ag  Ag1  1  0.500000  0.000000  0.337816  1
  Ag  Ag2  1  0.500000  0.500000  0.337816  1
  Mo  Mo3  1  1.000000  0.500000  0.337816  1
  Ag  Ag4  1  0.666667  0.333333  0.445939  1
  Ag  Ag5  1  0.166667  0.333333  0.445939  1
  Ag  Ag6  1  0.166667  0.833333  0.445939  1
  Mo  Mo7  1  0.666667  0.833333  0.445939  1
  Ag  Ag8  1  0.338338  0.668288  0.551321  1
  Ag  Ag9  1  0.829950  0.668288  0.551321  1
  Ag  Ag10  1  0.832958  0.165917  0.550085  1
  Mo  Mo11  1  0.335683  0.171366  0.567846  1
  Pt  Pt12  1  0.010708  1.012656  0.655078  1
  Pt  Pt13  1  0.501948  1.012656  0.655078  1
  Pt  Pt14  1  0.513618  0.527236  0.657677  1
  Pt  Pt15  1  0.001667  0.503333  0.655222  1
  O  O16  1  0.516566  0.533132  0.749705  1
  H  H17  1  0.607716  0.715432  0.763596  1
