# generated using pymatgen
data_Ni3Ag9HPt4O
_symmetry_space_group_name_H-M   'P 1'
_cell_length_a   5.66230120
_cell_length_b   5.66230120
_cell_length_c   21.93487435
_cell_angle_alpha   90.00000000
_cell_angle_beta   90.00000000
_cell_angle_gamma   120.00000000
_symmetry_Int_Tables_number   1
_chemical_formula_structural   Ni3Ag9HPt4O
_chemical_formula_sum   'Ni3 Ag9 H1 Pt4 O1'
_cell_volume   609.04827513
_cell_formula_units_Z   1
loop_
 _symmetry_equiv_pos_site_id
 _symmetry_equiv_pos_as_xyz
  1  'x, y, z'
loop_
 _atom_site_type_symbol
 _atom_site_label
 _atom_site_symmetry_multiplicity
 _atom_site_fract_x
 _atom_site_fract_y
 _atom_site_fract_z
 _atom_site_occupancy
  Ag  Ag0  1  0.000000  0.000000  0.341921  1
  Ag  Ag1  1  0.500000  0.000000  0.341921  1
  Ag  Ag2  1  0.500000  0.500000  0.341921  1
  Ni  Ni3  1  -0.000000  0.500000  0.341921  1
  Ag  Ag4  1  0.666667  0.333333  0.447307  1
  Ag  Ag5  1  0.166667  0.333333  0.447307  1
  Ag  Ag6  1  0.166667  0.833333  0.447307  1
  Ni  Ni7  1  0.666667  0.833333  0.447307  1
  Ag  Ag8  1  0.332480  0.657141  0.554148  1
  Ag  Ag9  1  0.824661  0.657141  0.554148  1
  Ag  Ag10  1  0.827598  0.155196  0.552019  1
  Ni  Ni11  1  0.332347  0.164693  0.564612  1
  Pt  Pt12  1  0.003015  -0.001409  0.658928  1
  Pt  Pt13  1  0.495576  -0.001409  0.658928  1
  Pt  Pt14  1  0.495335  0.490669  0.666780  1
  Pt  Pt15  1  -0.003459  0.493083  0.661165  1
  O  O16  1  0.513184  0.526368  0.758439  1
  H  H17  1  0.610414  0.720828  0.768676  1
