# generated using pymatgen
data_Nb3Ag9HPt4O
_symmetry_space_group_name_H-M   'P 1'
_cell_length_a   5.94517321
_cell_length_b   5.94517321
_cell_length_c   22.28132040
_cell_angle_alpha   90.00000000
_cell_angle_beta   90.00000000
_cell_angle_gamma   120.00000000
_symmetry_Int_Tables_number   1
_chemical_formula_structural   Nb3Ag9HPt4O
_chemical_formula_sum   'Nb3 Ag9 H1 Pt4 O1'
_cell_volume   682.02544876
_cell_formula_units_Z   1
loop_
 _symmetry_equiv_pos_site_id
 _symmetry_equiv_pos_as_xyz
  1  'x, y, z'
loop_
 _atom_site_type_symbol
 _atom_site_label
 _atom_site_symmetry_multiplicity
 _atom_site_fract_x
 _atom_site_fract_y
 _atom_site_fract_z
 _atom_site_occupancy
  Ag  Ag0  1  0.000000  0.000000  0.336605  1
  Ag  Ag1  1  0.500000  0.000000  0.336605  1
  Ag  Ag2  1  0.500000  0.500000  0.336605  1
  Nb  Nb3  1  -0.000000  0.500000  0.336605  1
  Ag  Ag4  1  0.666667  0.333333  0.445535  1
  Ag  Ag5  1  0.166667  0.333333  0.445535  1
  Ag  Ag6  1  0.166667  0.833333  0.445535  1
  Nb  Nb7  1  0.666667  0.833333  0.445535  1
  Ag  Ag8  1  0.341567  0.676002  0.551056  1
  Ag  Ag9  1  0.834435  0.676002  0.551056  1
  Ag  Ag10  1  0.835755  0.171511  0.549352  1
  Nb  Nb11  1  0.341028  0.182056  0.580024  1
  Pt  Pt12  1  -0.001960  0.009409  0.657620  1
  Pt  Pt13  1  0.511369  0.009409  0.657620  1
  Pt  Pt14  1  0.518830  0.537660  0.658875  1
  Pt  Pt15  1  1.001783  0.503565  0.654080  1
  O  O16  1  0.527535  0.555070  0.751314  1
  H  H17  1  0.617121  0.734241  0.765835  1
