# generated using pymatgen
data_Ag9HOs3Pt4O
_symmetry_space_group_name_H-M   'P 1'
_cell_length_a   5.74138022
_cell_length_b   5.74138022
_cell_length_c   22.03172598
_cell_angle_alpha   90.00000000
_cell_angle_beta   90.00000000
_cell_angle_gamma   120.00000000
_symmetry_Int_Tables_number   1
_chemical_formula_structural   Ag9HOs3Pt4O
_chemical_formula_sum   'Ag9 Os3 H1 Pt4 O1'
_cell_volume   628.94369911
_cell_formula_units_Z   1
loop_
 _symmetry_equiv_pos_site_id
 _symmetry_equiv_pos_as_xyz
  1  'x, y, z'
loop_
 _atom_site_type_symbol
 _atom_site_label
 _atom_site_symmetry_multiplicity
 _atom_site_fract_x
 _atom_site_fract_y
 _atom_site_fract_z
 _atom_site_occupancy
  Ag  Ag0  1  0.000000  0.000000  0.340418  1
  Ag  Ag1  1  0.500000  0.000000  0.340418  1
  Ag  Ag2  1  0.500000  0.500000  0.340418  1
  Os  Os3  1  0.000000  0.500000  0.340418  1
  Ag  Ag4  1  0.666667  0.333333  0.446806  1
  Ag  Ag5  1  0.166667  0.333333  0.446806  1
  Ag  Ag6  1  0.166667  0.833333  0.446806  1
  Os  Os7  1  0.666667  0.833333  0.446806  1
  Ag  Ag8  1  0.334193  0.660861  0.553758  1
  Ag  Ag9  1  0.826669  0.660861  0.553758  1
  Ag  Ag10  1  0.829015  0.158029  0.552351  1
  Os  Os11  1  0.331886  0.163772  0.564390  1
  Pt  Pt12  1  0.003385  -0.007534  0.658792  1
  Pt  Pt13  1  0.489081  -0.007534  0.658792  1
  Pt  Pt14  1  0.491584  0.483168  0.664615  1
  Pt  Pt15  1  -0.007322  0.485355  0.660421  1
  O  O16  1  0.531492  0.562984  0.755813  1
  H  H17  1  0.628085  0.756171  0.764235  1
