# generated using pymatgen
data_Ag9HPd3Pt4O
_symmetry_space_group_name_H-M   'P 1'
_cell_length_a   5.78303469
_cell_length_b   5.78303469
_cell_length_c   22.08274208
_cell_angle_alpha   90.00000000
_cell_angle_beta   90.00000000
_cell_angle_gamma   120.00000000
_symmetry_Int_Tables_number   1
_chemical_formula_structural   Ag9HPd3Pt4O
_chemical_formula_sum   'Ag9 Pd3 H1 Pt4 O1'
_cell_volume   639.58051779
_cell_formula_units_Z   1
loop_
 _symmetry_equiv_pos_site_id
 _symmetry_equiv_pos_as_xyz
  1  'x, y, z'
loop_
 _atom_site_type_symbol
 _atom_site_label
 _atom_site_symmetry_multiplicity
 _atom_site_fract_x
 _atom_site_fract_y
 _atom_site_fract_z
 _atom_site_occupancy
  Ag  Ag0  1  0.000000  0.000000  0.339632  1
  Ag  Ag1  1  0.500000  0.000000  0.339632  1
  Ag  Ag2  1  0.500000  0.500000  0.339632  1
  Pd  Pd3  1  0.000000  0.500000  0.339632  1
  Ag  Ag4  1  0.666667  0.333333  0.446544  1
  Ag  Ag5  1  0.166667  0.333333  0.446544  1
  Ag  Ag6  1  0.166667  0.833333  0.446544  1
  Pd  Pd7  1  0.666667  0.833333  0.446544  1
  Ag  Ag8  1  0.334023  0.664524  0.555503  1
  Ag  Ag9  1  0.830501  0.664524  0.555503  1
  Ag  Ag10  1  0.831486  0.162972  0.554164  1
  Pd  Pd11  1  0.335967  0.171934  0.557729  1
  Pt  Pt12  1  0.999871  -0.006543  0.659880  1
  Pt  Pt13  1  0.493586  -0.006543  0.659880  1
  Pt  Pt14  1  0.490509  0.481018  0.666785  1
  Pt  Pt15  1  -0.005760  0.488479  0.660862  1
  O  O16  1  0.514345  0.528689  0.756737  1
  H  H17  1  0.610309  0.720617  0.765359  1
