# generated using pymatgen
data_Ag9HPt7O
_symmetry_space_group_name_H-M   'P 1'
_cell_length_a   5.78187736
_cell_length_b   5.78187736
_cell_length_c   22.08132465
_cell_angle_alpha   90.00000000
_cell_angle_beta   90.00000000
_cell_angle_gamma   120.00000000
_symmetry_Int_Tables_number   1
_chemical_formula_structural   Ag9HPt7O
_chemical_formula_sum   'Ag9 H1 Pt7 O1'
_cell_volume   639.28351641
_cell_formula_units_Z   1
loop_
 _symmetry_equiv_pos_site_id
 _symmetry_equiv_pos_as_xyz
  1  'x, y, z'
loop_
 _atom_site_type_symbol
 _atom_site_label
 _atom_site_symmetry_multiplicity
 _atom_site_fract_x
 _atom_site_fract_y
 _atom_site_fract_z
 _atom_site_occupancy
  Ag  Ag0  1  0.000000  0.000000  0.339654  1
  Ag  Ag1  1  0.500000  0.000000  0.339654  1
  Ag  Ag2  1  0.500000  0.500000  0.339654  1
  Pt  Pt3  1  -0.000000  0.500000  0.339654  1
  Ag  Ag4  1  0.666667  0.333333  0.446551  1
  Ag  Ag5  1  0.166667  0.333333  0.446551  1
  Ag  Ag6  1  0.166667  0.833333  0.446551  1
  Pt  Pt7  1  0.666667  0.833333  0.446551  1
  Ag  Ag8  1  0.335554  0.668373  0.554738  1
  Ag  Ag9  1  0.832819  0.668373  0.554738  1
  Ag  Ag10  1  0.833357  0.166714  0.553432  1
  Pt  Pt11  1  0.338330  0.176660  0.559261  1
  Pt  Pt12  1  0.000054  -0.005025  0.659405  1
  Pt  Pt13  1  0.494921  -0.005025  0.659405  1
  Pt  Pt14  1  0.490715  0.481431  0.666483  1
  Pt  Pt15  1  -0.004513  0.490974  0.660690  1
  O  O16  1  0.520814  0.541627  0.756146  1
  H  H17  1  0.617061  0.734122  0.763953  1
