# generated using pymatgen
data_Ag9HRu3Pt4O
_symmetry_space_group_name_H-M   'P 1'
_cell_length_a   5.74884728
_cell_length_b   5.74884728
_cell_length_c   22.04087122
_cell_angle_alpha   90.00000000
_cell_angle_beta   90.00000000
_cell_angle_gamma   120.00000000
_symmetry_Int_Tables_number   1
_chemical_formula_structural   Ag9HRu3Pt4O
_chemical_formula_sum   'Ag9 Ru3 H1 Pt4 O1'
_cell_volume   630.84248138
_cell_formula_units_Z   1
loop_
 _symmetry_equiv_pos_site_id
 _symmetry_equiv_pos_as_xyz
  1  'x, y, z'
loop_
 _atom_site_type_symbol
 _atom_site_label
 _atom_site_symmetry_multiplicity
 _atom_site_fract_x
 _atom_site_fract_y
 _atom_site_fract_z
 _atom_site_occupancy
  Ag  Ag0  1  0.000000  0.000000  0.340277  1
  Ag  Ag1  1  0.500000  0.000000  0.340277  1
  Ag  Ag2  1  0.500000  0.500000  0.340277  1
  Ru  Ru3  1  0.000000  0.500000  0.340277  1
  Ag  Ag4  1  0.666667  0.333333  0.446759  1
  Ag  Ag5  1  0.166667  0.333333  0.446759  1
  Ag  Ag6  1  0.166667  0.833333  0.446759  1
  Ru  Ru7  1  0.666667  0.833333  0.446759  1
  Ag  Ag8  1  0.338119  0.667708  0.554236  1
  Ag  Ag9  1  0.829971  0.667776  0.554180  1
  Ag  Ag10  1  0.832961  0.165760  0.552469  1
  Ru  Ru11  1  0.335289  0.170001  0.562419  1
  Pt  Pt12  1  0.012465  0.012259  0.658385  1
  Pt  Pt13  1  0.498875  1.011976  0.658446  1
  Pt  Pt14  1  0.500115  0.500769  0.664742  1
  Pt  Pt15  1  1.001719  0.504565  0.660221  1
  O  O16  1  0.525169  0.561857  0.756077  1
  H  H17  1  0.633250  0.753465  0.765522  1
