# generated using pymatgen
data_Re3Ag9HPt4O
_symmetry_space_group_name_H-M   'P 1'
_cell_length_a   5.76744208
_cell_length_b   5.76744208
_cell_length_c   22.06364511
_cell_angle_alpha   90.00000000
_cell_angle_beta   90.00000000
_cell_angle_gamma   120.00000000
_symmetry_Int_Tables_number   1
_chemical_formula_structural   Re3Ag9HPt4O
_chemical_formula_sum   'Re3 Ag9 H1 Pt4 O1'
_cell_volume   635.58608320
_cell_formula_units_Z   1
loop_
 _symmetry_equiv_pos_site_id
 _symmetry_equiv_pos_as_xyz
  1  'x, y, z'
loop_
 _atom_site_type_symbol
 _atom_site_label
 _atom_site_symmetry_multiplicity
 _atom_site_fract_x
 _atom_site_fract_y
 _atom_site_fract_z
 _atom_site_occupancy
  Ag  Ag0  1  0.000000  0.000000  0.339926  1
  Ag  Ag1  1  0.500000  0.000000  0.339926  1
  Ag  Ag2  1  0.500000  0.500000  0.339926  1
  Re  Re3  1  0.000000  0.500000  0.339926  1
  Ag  Ag4  1  0.666667  0.333333  0.446642  1
  Ag  Ag5  1  0.166667  0.333333  0.446642  1
  Ag  Ag6  1  0.166667  0.833333  0.446642  1
  Re  Re7  1  0.666667  0.833333  0.446642  1
  Ag  Ag8  1  0.336760  0.667929  0.553599  1
  Ag  Ag9  1  0.831169  0.667929  0.553599  1
  Ag  Ag10  1  0.833180  0.166360  0.552403  1
  Re  Re11  1  0.337192  0.174384  0.573176  1
  Pt  Pt12  1  -0.001728  -0.003789  0.660368  1
  Pt  Pt13  1  0.497938  -0.003789  0.660368  1
  Pt  Pt14  1  0.502637  0.505274  0.664859  1
  Pt  Pt15  1  -0.002351  0.495299  0.660070  1
  O  O16  1  0.539727  0.579454  0.756846  1
  H  H17  1  0.634972  0.769944  0.767158  1
