# generated using pymatgen
data_Ag9HPt4Rh3O
_symmetry_space_group_name_H-M   'P 1'
_cell_length_a   5.74851282
_cell_length_b   5.74851282
_cell_length_c   22.04046159
_cell_angle_alpha   90.00000000
_cell_angle_beta   90.00000000
_cell_angle_gamma   120.00000000
_symmetry_Int_Tables_number   1
_chemical_formula_structural   Ag9HPt4Rh3O
_chemical_formula_sum   'Ag9 H1 Rh3 Pt4 O1'
_cell_volume   630.75735882
_cell_formula_units_Z   1
loop_
 _symmetry_equiv_pos_site_id
 _symmetry_equiv_pos_as_xyz
  1  'x, y, z'
loop_
 _atom_site_type_symbol
 _atom_site_label
 _atom_site_symmetry_multiplicity
 _atom_site_fract_x
 _atom_site_fract_y
 _atom_site_fract_z
 _atom_site_occupancy
  Ag  Ag0  1  0.000000  0.000000  0.340283  1
  Ag  Ag1  1  0.500000  0.000000  0.340283  1
  Ag  Ag2  1  0.500000  0.500000  0.340283  1
  Rh  Rh3  1  -0.000000  0.500000  0.340283  1
  Ag  Ag4  1  0.666667  0.333333  0.446761  1
  Ag  Ag5  1  0.166667  0.333333  0.446761  1
  Ag  Ag6  1  0.166667  0.833333  0.446761  1
  Rh  Rh7  1  0.666667  0.833333  0.446761  1
  Ag  Ag8  1  0.337632  0.669496  0.554756  1
  Ag  Ag9  1  0.831863  0.669496  0.554756  1
  Ag  Ag10  1  0.833973  0.167947  0.553452  1
  Rh  Rh11  1  0.337534  0.175069  0.561734  1
  Pt  Pt12  1  0.005890  0.001929  0.659945  1
  Pt  Pt13  1  0.496039  0.001929  0.659945  1
  Pt  Pt14  1  0.494213  0.488426  0.666787  1
  Pt  Pt15  1  -0.001784  0.496431  0.661195  1
  O  O16  1  0.524232  0.548465  0.757479  1
  H  H17  1  0.620689  0.741379  0.766204  1
