# generated using pymatgen
data_Ag9Sn3HPt4O
_symmetry_space_group_name_H-M   'P 1'
_cell_length_a   6.03833911
_cell_length_b   6.03833911
_cell_length_c   22.39542485
_cell_angle_alpha   90.00000000
_cell_angle_beta   90.00000000
_cell_angle_gamma   120.00000000
_symmetry_Int_Tables_number   1
_chemical_formula_structural   Ag9Sn3HPt4O
_chemical_formula_sum   'Ag9 Sn3 H1 Pt4 O1'
_cell_volume   707.17180167
_cell_formula_units_Z   1
loop_
 _symmetry_equiv_pos_site_id
 _symmetry_equiv_pos_as_xyz
  1  'x, y, z'
loop_
 _atom_site_type_symbol
 _atom_site_label
 _atom_site_symmetry_multiplicity
 _atom_site_fract_x
 _atom_site_fract_y
 _atom_site_fract_z
 _atom_site_occupancy
  Ag  Ag0  1  0.000000  0.000000  0.334890  1
  Ag  Ag1  1  0.500000  0.000000  0.334890  1
  Ag  Ag2  1  0.500000  0.500000  0.334890  1
  Sn  Sn3  1  -0.000000  0.500000  0.334890  1
  Ag  Ag4  1  0.666667  0.333333  0.444963  1
  Ag  Ag5  1  0.166667  0.333333  0.444963  1
  Ag  Ag6  1  0.166667  0.833333  0.444963  1
  Sn  Sn7  1  0.666667  0.833333  0.444963  1
  Ag  Ag8  1  0.330241  0.656272  0.555728  1
  Ag  Ag9  1  0.826030  0.656272  0.555728  1
  Ag  Ag10  1  0.832691  0.165381  0.553641  1
  Sn  Sn11  1  0.330064  0.160129  0.570473  1
  Pt  Pt12  1  -0.019512  -0.011880  0.658044  1
  Pt  Pt13  1  0.507632  0.988120  0.658044  1
  Pt  Pt14  1  0.504363  0.508726  0.662618  1
  Pt  Pt15  1  -0.004587  0.490826  0.656645  1
  O  O16  1  0.492914  0.485828  0.752712  1
  H  H17  1  0.580156  0.660313  0.768462  1
