# generated using pymatgen
data_Sc3Ag9HPt4O
_symmetry_space_group_name_H-M   'P 1'
_cell_length_a   6.00348331
_cell_length_b   6.00348331
_cell_length_c   22.35273539
_cell_angle_alpha   90.00000000
_cell_angle_beta   90.00000000
_cell_angle_gamma   120.00000000
_symmetry_Int_Tables_number   1
_chemical_formula_structural   Sc3Ag9HPt4O
_chemical_formula_sum   'Sc3 Ag9 H1 Pt4 O1'
_cell_volume   697.69871513
_cell_formula_units_Z   1
loop_
 _symmetry_equiv_pos_site_id
 _symmetry_equiv_pos_as_xyz
  1  'x, y, z'
loop_
 _atom_site_type_symbol
 _atom_site_label
 _atom_site_symmetry_multiplicity
 _atom_site_fract_x
 _atom_site_fract_y
 _atom_site_fract_z
 _atom_site_occupancy
  Ag  Ag0  1  0.000000  0.000000  0.335529  1
  Ag  Ag1  1  0.500000  0.000000  0.335529  1
  Ag  Ag2  1  0.500000  0.500000  0.335529  1
  Sc  Sc3  1  0.000000  0.500000  0.335529  1
  Ag  Ag4  1  0.666667  0.333333  0.445176  1
  Ag  Ag5  1  0.166667  0.333333  0.445176  1
  Ag  Ag6  1  0.166667  0.833333  0.445176  1
  Sc  Sc7  1  0.666667  0.833333  0.445176  1
  Ag  Ag8  1  0.341310  0.670129  0.552437  1
  Ag  Ag9  1  0.828819  0.670129  0.552437  1
  Ag  Ag10  1  0.838185  0.176371  0.551824  1
  Sc  Sc11  1  0.335341  0.170682  0.572027  1
  Pt  Pt12  1  0.002660  0.014481  0.654759  1
  Pt  Pt13  1  0.511821  0.014481  0.654759  1
  Pt  Pt14  1  0.517028  0.534057  0.657645  1
  Pt  Pt15  1  0.009436  0.518873  0.653455  1
  O  O16  1  0.478481  0.456962  0.746940  1
  H  H17  1  0.562640  0.625280  0.766612  1
