# generated using pymatgen
data_Ag9Sb3HPt4O
_symmetry_space_group_name_H-M   'P 1'
_cell_length_a   6.06699467
_cell_length_b   6.06699467
_cell_length_c   22.43052061
_cell_angle_alpha   90.00000000
_cell_angle_beta   90.00000000
_cell_angle_gamma   120.00000000
_symmetry_Int_Tables_number   1
_chemical_formula_structural   Ag9Sb3HPt4O
_chemical_formula_sum   'Ag9 Sb3 H1 Pt4 O1'
_cell_volume   715.01839071
_cell_formula_units_Z   1
loop_
 _symmetry_equiv_pos_site_id
 _symmetry_equiv_pos_as_xyz
  1  'x, y, z'
loop_
 _atom_site_type_symbol
 _atom_site_label
 _atom_site_symmetry_multiplicity
 _atom_site_fract_x
 _atom_site_fract_y
 _atom_site_fract_z
 _atom_site_occupancy
  Ag  Ag0  1  0.000000  0.000000  0.334366  1
  Ag  Ag1  1  0.500000  0.000000  0.334366  1
  Ag  Ag2  1  0.500000  0.500000  0.334366  1
  Sb  Sb3  1  0.000000  0.500000  0.334366  1
  Ag  Ag4  1  0.666667  0.333333  0.444789  1
  Ag  Ag5  1  0.166667  0.333333  0.444789  1
  Ag  Ag6  1  0.166667  0.833333  0.444789  1
  Sb  Sb7  1  0.666667  0.833333  0.444789  1
  Ag  Ag8  1  0.326644  0.655817  0.554743  1
  Ag  Ag9  1  0.829173  0.655817  0.554743  1
  Ag  Ag10  1  0.832588  0.165177  0.553502  1
  Sb  Sb11  1  0.337194  0.174389  0.577876  1
  Pt  Pt12  1  0.976169  -0.018531  0.658154  1
  Pt  Pt13  1  0.505300  -0.018531  0.658154  1
  Pt  Pt14  1  0.507130  0.514259  0.664488  1
  Pt  Pt15  1  0.994093  0.488186  0.656170  1
  O  O16  1  0.514464  0.528927  0.755047  1
  H  H17  1  0.602591  0.705183  0.768998  1
