# generated using pymatgen
data_Ta3Ag9HPt4O
_symmetry_space_group_name_H-M   'P 1'
_cell_length_a   5.89222583
_cell_length_b   5.89222583
_cell_length_c   22.21647336
_cell_angle_alpha   90.00000000
_cell_angle_beta   90.00000000
_cell_angle_gamma   120.00000000
_symmetry_Int_Tables_number   1
_chemical_formula_structural   Ta3Ag9HPt4O
_chemical_formula_sum   'Ta3 Ag9 H1 Pt4 O1'
_cell_volume   667.98162904
_cell_formula_units_Z   1
loop_
 _symmetry_equiv_pos_site_id
 _symmetry_equiv_pos_as_xyz
  1  'x, y, z'
loop_
 _atom_site_type_symbol
 _atom_site_label
 _atom_site_symmetry_multiplicity
 _atom_site_fract_x
 _atom_site_fract_y
 _atom_site_fract_z
 _atom_site_occupancy
  Ag  Ag0  1  0.000000  0.000000  0.337587  1
  Ag  Ag1  1  0.500000  0.000000  0.337587  1
  Ag  Ag2  1  0.500000  0.500000  0.337587  1
  Ta  Ta3  1  0.000000  0.500000  0.337587  1
  Ag  Ag4  1  0.666667  0.333333  0.445862  1
  Ag  Ag5  1  0.166667  0.333333  0.445862  1
  Ag  Ag6  1  0.166667  0.833333  0.445862  1
  Ta  Ta7  1  0.666667  0.833333  0.445862  1
  Ag  Ag8  1  0.339799  0.670885  0.551883  1
  Ag  Ag9  1  0.831086  0.670885  0.551883  1
  Ag  Ag10  1  0.832681  0.165361  0.550256  1
  Ta  Ta11  1  0.337387  0.174773  0.581864  1
  Pt  Pt12  1  -0.005782  0.000072  0.660348  1
  Pt  Pt13  1  0.505854  0.000072  0.660348  1
  Pt  Pt14  1  0.513007  0.526014  0.661852  1
  Pt  Pt15  1  -0.001648  0.496705  0.656089  1
  O  O16  1  0.526971  0.553942  0.754964  1
  H  H17  1  0.617471  0.734943  0.769441  1
