# generated using pymatgen
data_Ti3Ag9HPt4O
_symmetry_space_group_name_H-M   'P 1'
_cell_length_a   5.88997035
_cell_length_b   5.88997035
_cell_length_c   22.21371098
_cell_angle_alpha   90.00000000
_cell_angle_beta   90.00000000
_cell_angle_gamma   120.00000000
_symmetry_Int_Tables_number   1
_chemical_formula_structural   Ti3Ag9HPt4O
_chemical_formula_sum   'Ti3 Ag9 H1 Pt4 O1'
_cell_volume   667.38734362
_cell_formula_units_Z   1
loop_
 _symmetry_equiv_pos_site_id
 _symmetry_equiv_pos_as_xyz
  1  'x, y, z'
loop_
 _atom_site_type_symbol
 _atom_site_label
 _atom_site_symmetry_multiplicity
 _atom_site_fract_x
 _atom_site_fract_y
 _atom_site_fract_z
 _atom_site_occupancy
  Ag  Ag0  1  0.000000  0.000000  0.337629  1
  Ag  Ag1  1  0.500000  0.000000  0.337629  1
  Ag  Ag2  1  0.500000  0.500000  0.337629  1
  Ti  Ti3  1  -0.000000  0.500000  0.337629  1
  Ag  Ag4  1  0.666667  0.333333  0.445876  1
  Ag  Ag5  1  0.166667  0.333333  0.445876  1
  Ag  Ag6  1  0.166667  0.833333  0.445876  1
  Ti  Ti7  1  0.666667  0.833333  0.445876  1
  Ag  Ag8  1  0.344065  0.679949  0.551152  1
  Ag  Ag9  1  0.835884  0.679949  0.551152  1
  Ag  Ag10  1  0.838286  0.176572  0.550121  1
  Ti  Ti11  1  0.343594  0.187188  0.579991  1
  Pt  Pt12  1  0.011067  0.024362  0.656366  1
  Pt  Pt13  1  0.513295  0.024362  0.656366  1
  Pt  Pt14  1  0.522402  0.544804  0.657909  1
  Pt  Pt15  1  0.009294  0.518587  0.654569  1
  O  O16  1  0.509932  0.519863  0.750300  1
  H  H17  1  0.598844  0.697688  0.766801  1
