# generated using pymatgen
data_V3Ag9HPt4O
_symmetry_space_group_name_H-M   'P 1'
_cell_length_a   5.85032400
_cell_length_b   5.85032400
_cell_length_c   22.16515432
_cell_angle_alpha   90.00000000
_cell_angle_beta   90.00000000
_cell_angle_gamma   120.00000000
_symmetry_Int_Tables_number   1
_chemical_formula_structural   V3Ag9HPt4O
_chemical_formula_sum   'V3 Ag9 H1 Pt4 O1'
_cell_volume   656.99373621
_cell_formula_units_Z   1
loop_
 _symmetry_equiv_pos_site_id
 _symmetry_equiv_pos_as_xyz
  1  'x, y, z'
loop_
 _atom_site_type_symbol
 _atom_site_label
 _atom_site_symmetry_multiplicity
 _atom_site_fract_x
 _atom_site_fract_y
 _atom_site_fract_z
 _atom_site_occupancy
  Ag  Ag0  1  0.000000  0.000000  0.338369  1
  Ag  Ag1  1  0.500000  0.000000  0.338369  1
  Ag  Ag2  1  0.500000  0.500000  0.338369  1
  V  V3  1  0.000000  0.500000  0.338369  1
  Ag  Ag4  1  0.666667  0.333333  0.446123  1
  Ag  Ag5  1  0.166667  0.333333  0.446123  1
  Ag  Ag6  1  0.166667  0.833333  0.446123  1
  V  V7  1  0.666667  0.833333  0.446123  1
  Ag  Ag8  1  0.339522  0.670785  0.550989  1
  Ag  Ag9  1  0.831263  0.670785  0.550989  1
  Ag  Ag10  1  0.833530  0.167061  0.550384  1
  V  V11  1  0.338274  0.176547  0.571406  1
  Pt  Pt12  1  0.013161  0.014633  0.655318  1
  Pt  Pt13  1  0.501472  0.014633  0.655318  1
  Pt  Pt14  1  0.515035  0.530070  0.657208  1
  Pt  Pt15  1  0.003281  0.506562  0.655258  1
  O  O16  1  0.506586  0.513173  0.749436  1
  H  H17  1  0.597329  0.694657  0.764503  1
