# generated using pymatgen
data_As3HPt4Au9O
_symmetry_space_group_name_H-M   'P 1'
_cell_length_a   5.92146326
_cell_length_b   5.92146326
_cell_length_c   22.25228176
_cell_angle_alpha   90.00000000
_cell_angle_beta   90.00000000
_cell_angle_gamma   120.00000000
_symmetry_Int_Tables_number   1
_chemical_formula_structural   As3HPt4Au9O
_chemical_formula_sum   'As3 H1 Pt4 Au9 O1'
_cell_volume   675.71453364
_cell_formula_units_Z   1
loop_
 _symmetry_equiv_pos_site_id
 _symmetry_equiv_pos_as_xyz
  1  'x, y, z'
loop_
 _atom_site_type_symbol
 _atom_site_label
 _atom_site_symmetry_multiplicity
 _atom_site_fract_x
 _atom_site_fract_y
 _atom_site_fract_z
 _atom_site_occupancy
  Au  Au0  1  0.000000  0.000000  0.337044  1
  Au  Au1  1  0.500000  0.000000  0.337044  1
  Au  Au2  1  0.500000  0.500000  0.337044  1
  As  As3  1  -0.000000  0.500000  0.337044  1
  Au  Au4  1  0.666667  0.333333  0.445681  1
  Au  Au5  1  0.166667  0.333333  0.445681  1
  Au  Au6  1  0.166667  0.833333  0.445681  1
  As  As7  1  0.666667  0.833333  0.445681  1
  Au  Au8  1  0.330501  0.654252  0.552416  1
  Au  Au9  1  0.823751  0.654252  0.552416  1
  Au  Au10  1  0.827359  0.154719  0.549719  1
  As  As11  1  0.336469  0.172938  0.587070  1
  Pt  Pt12  1  -0.014577  -0.010633  0.659484  1
  Pt  Pt13  1  0.503943  -0.010633  0.659484  1
  Pt  Pt14  1  0.508587  0.517175  0.665041  1
  Pt  Pt15  1  -0.005114  0.489772  0.655334  1
  O  O16  1  0.508740  0.517480  0.756353  1
  H  H17  1  0.598190  0.696381  0.771527  1
