# generated using pymatgen
data_Ag3HPt4Au9O
_symmetry_space_group_name_H-M   'P 1'
_cell_length_a   5.87030184
_cell_length_b   5.87030184
_cell_length_c   22.18962208
_cell_angle_alpha   90.00000000
_cell_angle_beta   90.00000000
_cell_angle_gamma   120.00000000
_symmetry_Int_Tables_number   1
_chemical_formula_structural   Ag3HPt4Au9O
_chemical_formula_sum   'Ag3 H1 Pt4 Au9 O1'
_cell_volume   662.21864252
_cell_formula_units_Z   1
loop_
 _symmetry_equiv_pos_site_id
 _symmetry_equiv_pos_as_xyz
  1  'x, y, z'
loop_
 _atom_site_type_symbol
 _atom_site_label
 _atom_site_symmetry_multiplicity
 _atom_site_fract_x
 _atom_site_fract_y
 _atom_site_fract_z
 _atom_site_occupancy
  Au  Au0  1  0.000000  0.000000  0.337996  1
  Au  Au1  1  0.500000  0.000000  0.337996  1
  Au  Au2  1  0.500000  0.500000  0.337996  1
  Ag  Ag3  1  0.000000  0.500000  0.337996  1
  Au  Au4  1  0.666667  0.333333  0.445999  1
  Au  Au5  1  0.166667  0.333333  0.445999  1
  Au  Au6  1  0.166667  0.833333  0.445999  1
  Ag  Ag7  1  0.666667  0.833333  0.445999  1
  Au  Au8  1  0.334685  0.662778  0.555380  1
  Au  Au9  1  0.828093  0.662778  0.555380  1
  Au  Au10  1  0.832545  0.165090  0.553532  1
  Ag  Ag11  1  0.332839  0.165678  0.554461  1
  Pt  Pt12  1  0.001559  0.003483  0.658404  1
  Pt  Pt13  1  0.501924  0.003483  0.658404  1
  Pt  Pt14  1  0.506026  0.512051  0.664036  1
  Pt  Pt15  1  0.000564  0.501127  0.658292  1
  O  O16  1  0.480995  0.461990  0.753241  1
  H  H17  1  0.569813  0.639627  0.770352  1
