# generated using pymatgen
data_HPt4Au12O
_symmetry_space_group_name_H-M   'P 1'
_cell_length_a   5.88010673
_cell_length_b   5.88010673
_cell_length_c   22.20163056
_cell_angle_alpha   90.00000000
_cell_angle_beta   90.00000000
_cell_angle_gamma   120.00000000
_symmetry_Int_Tables_number   1
_chemical_formula_structural   HPt4Au12O
_chemical_formula_sum   'H1 Pt4 Au12 O1'
_cell_volume   664.79220888
_cell_formula_units_Z   1
loop_
 _symmetry_equiv_pos_site_id
 _symmetry_equiv_pos_as_xyz
  1  'x, y, z'
loop_
 _atom_site_type_symbol
 _atom_site_label
 _atom_site_symmetry_multiplicity
 _atom_site_fract_x
 _atom_site_fract_y
 _atom_site_fract_z
 _atom_site_occupancy
  Au  Au0  1  0.000000  0.000000  0.337813  1
  Au  Au1  1  0.500000  0.000000  0.337813  1
  Au  Au2  1  0.500000  0.500000  0.337813  1
  Au  Au3  1  0.000000  0.500000  0.337813  1
  Au  Au4  1  0.666667  0.333333  0.445938  1
  Au  Au5  1  0.166667  0.333333  0.445938  1
  Au  Au6  1  0.166667  0.833333  0.445938  1
  Au  Au7  1  0.666667  0.833333  0.445938  1
  Au  Au8  1  0.332195  0.660156  0.555192  1
  Au  Au9  1  0.827961  0.660156  0.555192  1
  Au  Au10  1  0.830935  0.161869  0.553352  1
  Au  Au11  1  0.332516  0.165033  0.554761  1
  Pt  Pt12  1  0.997741  0.995603  0.657935  1
  Pt  Pt13  1  0.497862  0.995603  0.657935  1
  Pt  Pt14  1  0.498782  0.497565  0.663881  1
  Pt  Pt15  1  0.996544  0.493087  0.658205  1
  O  O16  1  0.490785  0.481571  0.753508  1
  H  H17  1  0.581928  0.663857  0.767676  1
