# generated using pymatgen
data_Co3HPt4Au9O
_symmetry_space_group_name_H-M   'P 1'
_cell_length_a   5.71829759
_cell_length_b   5.71829759
_cell_length_c   22.00345565
_cell_angle_alpha   90.00000000
_cell_angle_beta   90.00000000
_cell_angle_gamma   120.00000000
_symmetry_Int_Tables_number   1
_chemical_formula_structural   Co3HPt4Au9O
_chemical_formula_sum   'Co3 H1 Pt4 Au9 O1'
_cell_volume   623.09609581
_cell_formula_units_Z   1
loop_
 _symmetry_equiv_pos_site_id
 _symmetry_equiv_pos_as_xyz
  1  'x, y, z'
loop_
 _atom_site_type_symbol
 _atom_site_label
 _atom_site_symmetry_multiplicity
 _atom_site_fract_x
 _atom_site_fract_y
 _atom_site_fract_z
 _atom_site_occupancy
  Au  Au0  1  0.000000  0.000000  0.340856  1
  Au  Au1  1  0.500000  0.000000  0.340856  1
  Au  Au2  1  0.500000  0.500000  0.340856  1
  Co  Co3  1  0.000000  0.500000  0.340856  1
  Au  Au4  1  0.666667  0.333333  0.446952  1
  Au  Au5  1  0.166667  0.333333  0.446952  1
  Au  Au6  1  0.166667  0.833333  0.446952  1
  Co  Co7  1  0.666667  0.833333  0.446952  1
  Au  Au8  1  0.336647  0.662891  0.554322  1
  Au  Au9  1  0.826244  0.662891  0.554322  1
  Au  Au10  1  0.831086  0.162172  0.552158  1
  Co  Co11  1  0.331700  0.163400  0.561984  1
  Pt  Pt12  1  0.023473  0.033704  0.657888  1
  Pt  Pt13  1  0.510231  0.033704  0.657888  1
  Pt  Pt14  1  0.516079  0.532157  0.664859  1
  Pt  Pt15  1  1.012969  0.525939  0.661218  1
  O  O16  1  0.511348  0.522697  0.756364  1
  H  H17  1  0.605319  0.710639  0.770237  1
