# generated using pymatgen
data_Cu3HPt4Au9O
_symmetry_space_group_name_H-M   'P 1'
_cell_length_a   5.72400197
_cell_length_b   5.72400197
_cell_length_c   22.01044206
_cell_angle_alpha   90.00000000
_cell_angle_beta   90.00000000
_cell_angle_gamma   120.00000000
_symmetry_Int_Tables_number   1
_chemical_formula_structural   Cu3HPt4Au9O
_chemical_formula_sum   'Cu3 H1 Pt4 Au9 O1'
_cell_volume   624.53811160
_cell_formula_units_Z   1
loop_
 _symmetry_equiv_pos_site_id
 _symmetry_equiv_pos_as_xyz
  1  'x, y, z'
loop_
 _atom_site_type_symbol
 _atom_site_label
 _atom_site_symmetry_multiplicity
 _atom_site_fract_x
 _atom_site_fract_y
 _atom_site_fract_z
 _atom_site_occupancy
  Au  Au0  1  0.000000  0.000000  0.340747  1
  Au  Au1  1  0.500000  0.000000  0.340747  1
  Au  Au2  1  0.500000  0.500000  0.340747  1
  Cu  Cu3  1  0.000000  0.500000  0.340747  1
  Au  Au4  1  0.666667  0.333333  0.446916  1
  Au  Au5  1  0.166667  0.333333  0.446916  1
  Au  Au6  1  0.166667  0.833333  0.446916  1
  Cu  Cu7  1  0.666667  0.833333  0.446916  1
  Au  Au8  1  0.333110  0.658298  0.553841  1
  Au  Au9  1  0.825187  0.658298  0.553841  1
  Au  Au10  1  0.828356  0.156712  0.551546  1
  Cu  Cu11  1  0.331743  0.163485  0.557401  1
  Pt  Pt12  1  1.007587  0.007255  0.657236  1
  Pt  Pt13  1  0.499668  0.007255  0.657236  1
  Pt  Pt14  1  0.503832  0.507664  0.663789  1
  Pt  Pt15  1  0.001125  0.502249  0.659572  1
  O  O16  1  0.484117  0.468233  0.754494  1
  H  H17  1  0.576415  0.652830  0.770360  1
