# generated using pymatgen
data_Cr3HPt4Au9O
_symmetry_space_group_name_H-M   'P 1'
_cell_length_a   5.84077489
_cell_length_b   5.84077489
_cell_length_c   22.15345909
_cell_angle_alpha   90.00000000
_cell_angle_beta   90.00000000
_cell_angle_gamma   120.00000000
_symmetry_Int_Tables_number   1
_chemical_formula_structural   Cr3HPt4Au9O
_chemical_formula_sum   'Cr3 H1 Pt4 Au9 O1'
_cell_volume   654.50522259
_cell_formula_units_Z   1
loop_
 _symmetry_equiv_pos_site_id
 _symmetry_equiv_pos_as_xyz
  1  'x, y, z'
loop_
 _atom_site_type_symbol
 _atom_site_label
 _atom_site_symmetry_multiplicity
 _atom_site_fract_x
 _atom_site_fract_y
 _atom_site_fract_z
 _atom_site_occupancy
  Au  Au0  1  0.000000  0.000000  0.338548  1
  Au  Au1  1  0.500000  0.000000  0.338548  1
  Au  Au2  1  0.500000  0.500000  0.338548  1
  Cr  Cr3  1  -0.000000  0.500000  0.338548  1
  Au  Au4  1  0.666667  0.333333  0.446183  1
  Au  Au5  1  0.166667  0.333333  0.446183  1
  Au  Au6  1  0.166667  0.833333  0.446183  1
  Cr  Cr7  1  0.666667  0.833333  0.446183  1
  Au  Au8  1  0.342165  0.671538  0.552919  1
  Au  Au9  1  0.829374  0.671538  0.552919  1
  Au  Au10  1  0.837164  0.174328  0.551305  1
  Cr  Cr11  1  0.336338  0.172677  0.560296  1
  Pt  Pt12  1  1.024109  0.033086  0.654969  1
  Pt  Pt13  1  0.508977  1.033086  0.654969  1
  Pt  Pt14  1  0.517800  0.535600  0.660687  1
  Pt  Pt15  1  1.012335  0.524670  0.657230  1
  O  O16  1  0.507583  0.515167  0.751711  1
  H  H17  1  0.598743  0.697486  0.766614  1
