# generated using pymatgen
data_Fe3HPt4Au9O
_symmetry_space_group_name_H-M   'P 1'
_cell_length_a   5.77319996
_cell_length_b   5.77319996
_cell_length_c   22.07069705
_cell_angle_alpha   90.00000000
_cell_angle_beta   90.00000000
_cell_angle_gamma   120.00000000
_symmetry_Int_Tables_number   1
_chemical_formula_structural   Fe3HPt4Au9O
_chemical_formula_sum   'Fe3 H1 Pt4 Au9 O1'
_cell_volume   637.05933161
_cell_formula_units_Z   1
loop_
 _symmetry_equiv_pos_site_id
 _symmetry_equiv_pos_as_xyz
  1  'x, y, z'
loop_
 _atom_site_type_symbol
 _atom_site_label
 _atom_site_symmetry_multiplicity
 _atom_site_fract_x
 _atom_site_fract_y
 _atom_site_fract_z
 _atom_site_occupancy
  Au  Au0  1  0.000000  0.000000  0.339817  1
  Au  Au1  1  0.500000  0.000000  0.339817  1
  Au  Au2  1  0.500000  0.500000  0.339817  1
  Fe  Fe3  1  0.000000  0.500000  0.339817  1
  Au  Au4  1  0.666667  0.333333  0.446606  1
  Au  Au5  1  0.166667  0.333333  0.446606  1
  Au  Au6  1  0.166667  0.833333  0.446606  1
  Fe  Fe7  1  0.666667  0.833333  0.446606  1
  Au  Au8  1  0.336572  0.662926  0.552345  1
  Au  Au9  1  0.826354  0.662926  0.552345  1
  Au  Au10  1  0.830514  0.161028  0.550464  1
  Fe  Fe11  1  0.334572  0.169144  0.564901  1
  Pt  Pt12  1  0.012445  0.014368  0.655680  1
  Pt  Pt13  1  0.501923  0.014368  0.655680  1
  Pt  Pt14  1  0.509338  0.518675  0.660403  1
  Pt  Pt15  1  0.003879  0.507758  0.657562  1
  O  O16  1  0.494912  0.489824  0.751788  1
  H  H17  1  0.586474  0.672949  0.767460  1
