# generated using pymatgen
data_Ge3HPt4Au9O
_symmetry_space_group_name_H-M   'P 1'
_cell_length_a   5.92361163
_cell_length_b   5.92361163
_cell_length_c   22.25491296
_cell_angle_alpha   90.00000000
_cell_angle_beta   90.00000000
_cell_angle_gamma   120.00000000
_symmetry_Int_Tables_number   1
_chemical_formula_structural   Ge3HPt4Au9O
_chemical_formula_sum   'Ge3 H1 Pt4 Au9 O1'
_cell_volume   676.28489235
_cell_formula_units_Z   1
loop_
 _symmetry_equiv_pos_site_id
 _symmetry_equiv_pos_as_xyz
  1  'x, y, z'
loop_
 _atom_site_type_symbol
 _atom_site_label
 _atom_site_symmetry_multiplicity
 _atom_site_fract_x
 _atom_site_fract_y
 _atom_site_fract_z
 _atom_site_occupancy
  Au  Au0  1  0.000000  0.000000  0.337004  1
  Au  Au1  1  0.500000  0.000000  0.337004  1
  Au  Au2  1  0.500000  0.500000  0.337004  1
  Ge  Ge3  1  -0.000000  0.500000  0.337004  1
  Au  Au4  1  0.666667  0.333333  0.445668  1
  Au  Au5  1  0.166667  0.333333  0.445668  1
  Au  Au6  1  0.166667  0.833333  0.445668  1
  Ge  Ge7  1  0.666667  0.833333  0.445668  1
  Au  Au8  1  0.335359  0.660008  0.554671  1
  Au  Au9  1  0.824649  0.660008  0.554671  1
  Au  Au10  1  0.831879  0.163758  0.552477  1
  Ge  Ge11  1  0.329795  0.159590  0.581249  1
  Pt  Pt12  1  -0.004889  0.006451  0.660965  1
  Pt  Pt13  1  0.511340  0.006451  0.660965  1
  Pt  Pt14  1  0.512789  0.525578  0.663880  1
  Pt  Pt15  1  0.003017  0.506033  0.658200  1
  O  O16  1  0.488560  0.477120  0.753625  1
  H  H17  1  0.575936  0.651872  0.771276  1
