# generated using pymatgen
data_Ga3HPt4Au9O
_symmetry_space_group_name_H-M   'P 1'
_cell_length_a   5.84783979
_cell_length_b   5.84783979
_cell_length_c   22.16211179
_cell_angle_alpha   90.00000000
_cell_angle_beta   90.00000000
_cell_angle_gamma   120.00000000
_symmetry_Int_Tables_number   1
_chemical_formula_structural   Ga3HPt4Au9O
_chemical_formula_sum   'Ga3 H1 Pt4 Au9 O1'
_cell_volume   656.34579184
_cell_formula_units_Z   1
loop_
 _symmetry_equiv_pos_site_id
 _symmetry_equiv_pos_as_xyz
  1  'x, y, z'
loop_
 _atom_site_type_symbol
 _atom_site_label
 _atom_site_symmetry_multiplicity
 _atom_site_fract_x
 _atom_site_fract_y
 _atom_site_fract_z
 _atom_site_occupancy
  Au  Au0  1  0.000000  0.000000  0.338415  1
  Au  Au1  1  0.500000  0.000000  0.338415  1
  Au  Au2  1  0.500000  0.500000  0.338415  1
  Ga  Ga3  1  0.000000  0.500000  0.338415  1
  Au  Au4  1  0.666667  0.333333  0.446138  1
  Au  Au5  1  0.166667  0.333333  0.446138  1
  Au  Au6  1  0.166667  0.833333  0.446138  1
  Ga  Ga7  1  0.666667  0.833333  0.446138  1
  Au  Au8  1  0.487796  0.960444  0.554365  1
  Au  Au9  1  0.972648  0.960444  0.554365  1
  Au  Au10  1  0.984679  0.469358  0.554592  1
  Ga  Ga11  1  0.485241  0.470481  0.574296  1
  Pt  Pt12  1  0.155963  1.311889  0.660208  1
  Pt  Pt13  1  0.655926  1.311889  0.660208  1
  Pt  Pt14  1  0.662628  0.825256  0.664379  1
  Pt  Pt15  1  0.157712  0.815424  0.659779  1
  O  O16  1  0.637351  0.774702  0.754571  1
  H  H17  1  0.726330  0.952660  0.771810  1
