# generated using pymatgen
data_In3HPt4Au9O
_symmetry_space_group_name_H-M   'P 1'
_cell_length_a   5.71932413
_cell_length_b   5.71932413
_cell_length_c   22.00471289
_cell_angle_alpha   90.00000000
_cell_angle_beta   90.00000000
_cell_angle_gamma   120.00000000
_symmetry_Int_Tables_number   1
_chemical_formula_structural   In3HPt4Au9O
_chemical_formula_sum   'In3 H1 Pt4 Au9 O1'
_cell_volume   623.35544560
_cell_formula_units_Z   1
loop_
 _symmetry_equiv_pos_site_id
 _symmetry_equiv_pos_as_xyz
  1  'x, y, z'
loop_
 _atom_site_type_symbol
 _atom_site_label
 _atom_site_symmetry_multiplicity
 _atom_site_fract_x
 _atom_site_fract_y
 _atom_site_fract_z
 _atom_site_occupancy
  Au  Au0  1  0.000000  0.000000  0.340836  1
  Au  Au1  1  0.500000  0.000000  0.340836  1
  Au  Au2  1  0.500000  0.500000  0.340836  1
  In  In3  1  -0.000000  0.500000  0.340836  1
  Au  Au4  1  0.666667  0.333333  0.446945  1
  Au  Au5  1  0.166667  0.333333  0.446945  1
  Au  Au6  1  0.166667  0.833333  0.446945  1
  In  In7  1  0.666667  0.833333  0.446945  1
  Au  Au8  1  0.333636  0.664126  0.566094  1
  Au  Au9  1  0.830490  0.664126  0.566094  1
  Au  Au10  1  0.830803  0.161606  0.565666  1
  In  In11  1  0.331391  0.162783  0.576631  1
  Pt  Pt12  1  1.164712  0.330963  0.677976  1
  Pt  Pt13  1  0.666252  0.330963  0.677976  1
  Pt  Pt14  1  0.665629  0.831258  0.680438  1
  Pt  Pt15  1  1.164986  0.829972  0.678037  1
  O  O16  1  0.654967  0.809934  0.771578  1
  H  H17  1  0.748471  0.996941  0.786070  1
