# generated using pymatgen
data_La3HPt4Au9O
_symmetry_space_group_name_H-M   'P 1'
_cell_length_a   6.37918728
_cell_length_b   6.37918728
_cell_length_c   22.81287690
_cell_angle_alpha   90.00000000
_cell_angle_beta   90.00000000
_cell_angle_gamma   120.00000000
_symmetry_Int_Tables_number   1
_chemical_formula_structural   La3HPt4Au9O
_chemical_formula_sum   'La3 H1 Pt4 Au9 O1'
_cell_volume   803.97286804
_cell_formula_units_Z   1
loop_
 _symmetry_equiv_pos_site_id
 _symmetry_equiv_pos_as_xyz
  1  'x, y, z'
loop_
 _atom_site_type_symbol
 _atom_site_label
 _atom_site_symmetry_multiplicity
 _atom_site_fract_x
 _atom_site_fract_y
 _atom_site_fract_z
 _atom_site_occupancy
  Au  Au0  1  0.000000  0.000000  0.328762  1
  Au  Au1  1  0.500000  0.000000  0.328762  1
  Au  Au2  1  0.500000  0.500000  0.328762  1
  La  La3  1  -0.000000  0.500000  0.328762  1
  Au  Au4  1  0.666667  0.333333  0.442921  1
  Au  Au5  1  0.166667  0.333333  0.442921  1
  Au  Au6  1  0.166667  0.833333  0.442921  1
  La  La7  1  0.666667  0.833333  0.442921  1
  Au  Au8  1  0.331281  0.666134  0.555680  1
  Au  Au9  1  0.834853  0.666134  0.555680  1
  Au  Au10  1  0.853505  0.207011  0.544266  1
  La  La11  1  0.337757  0.175513  0.566518  1
  Pt  Pt12  1  0.972431  0.014381  0.647764  1
  Pt  Pt13  1  0.541950  0.014381  0.647764  1
  Pt  Pt14  1  0.536459  0.572919  0.655659  1
  Pt  Pt15  1  0.977130  0.454261  0.649826  1
  O  O16  1  0.490331  0.480661  0.740097  1
  H  H17  1  0.566536  0.633072  0.762043  1
