# generated using pymatgen
data_Mo3HPt4Au9O
_symmetry_space_group_name_H-M   'P 1'
_cell_length_a   5.86179161
_cell_length_b   5.86179161
_cell_length_c   22.17919921
_cell_angle_alpha   90.00000000
_cell_angle_beta   90.00000000
_cell_angle_gamma   120.00000000
_symmetry_Int_Tables_number   1
_chemical_formula_structural   Mo3HPt4Au9O
_chemical_formula_sum   'Mo3 H1 Pt4 Au9 O1'
_cell_volume   659.98982872
_cell_formula_units_Z   1
loop_
 _symmetry_equiv_pos_site_id
 _symmetry_equiv_pos_as_xyz
  1  'x, y, z'
loop_
 _atom_site_type_symbol
 _atom_site_label
 _atom_site_symmetry_multiplicity
 _atom_site_fract_x
 _atom_site_fract_y
 _atom_site_fract_z
 _atom_site_occupancy
  Au  Au0  1  0.000000  0.000000  0.338155  1
  Au  Au1  1  0.500000  0.000000  0.338155  1
  Au  Au2  1  0.500000  0.500000  0.338155  1
  Mo  Mo3  1  -0.000000  0.500000  0.338155  1
  Au  Au4  1  0.666667  0.333333  0.446052  1
  Au  Au5  1  0.166667  0.333333  0.446052  1
  Au  Au6  1  0.166667  0.833333  0.446052  1
  Mo  Mo7  1  0.666667  0.833333  0.446052  1
  Au  Au8  1  0.348805  0.687587  0.550546  1
  Au  Au9  1  0.838782  0.687587  0.550546  1
  Au  Au10  1  0.839483  0.178967  0.548946  1
  Mo  Mo11  1  0.347258  0.194515  0.565267  1
  Pt  Pt12  1  0.034329  0.052473  0.654438  1
  Pt  Pt13  1  0.518144  1.052473  0.654438  1
  Pt  Pt14  1  0.533434  0.566868  0.656920  1
  Pt  Pt15  1  0.019545  0.539091  0.655445  1
  O  O16  1  0.525530  0.551060  0.748213  1
  H  H17  1  0.615833  0.731666  0.763587  1
