# generated using pymatgen
data_Mn3HPt4Au9O
_symmetry_space_group_name_H-M   'P 1'
_cell_length_a   5.82020289
_cell_length_b   5.82020289
_cell_length_c   22.12826364
_cell_angle_alpha   90.00000000
_cell_angle_beta   90.00000000
_cell_angle_gamma   120.00000000
_symmetry_Int_Tables_number   1
_chemical_formula_structural   Mn3HPt4Au9O
_chemical_formula_sum   'Mn3 H1 Pt4 Au9 O1'
_cell_volume   649.16368585
_cell_formula_units_Z   1
loop_
 _symmetry_equiv_pos_site_id
 _symmetry_equiv_pos_as_xyz
  1  'x, y, z'
loop_
 _atom_site_type_symbol
 _atom_site_label
 _atom_site_symmetry_multiplicity
 _atom_site_fract_x
 _atom_site_fract_y
 _atom_site_fract_z
 _atom_site_occupancy
  Au  Au0  1  0.000000  0.000000  0.338933  1
  Au  Au1  1  0.500000  0.000000  0.338933  1
  Au  Au2  1  0.500000  0.500000  0.338933  1
  Mn  Mn3  1  -0.000000  0.500000  0.338933  1
  Au  Au4  1  0.666667  0.333333  0.446311  1
  Au  Au5  1  0.166667  0.333333  0.446311  1
  Au  Au6  1  0.166667  0.833333  0.446311  1
  Mn  Mn7  1  0.666667  0.833333  0.446311  1
  Au  Au8  1  0.342210  0.672038  0.552911  1
  Au  Au9  1  0.829828  0.672038  0.552911  1
  Au  Au10  1  0.837226  0.174451  0.551832  1
  Mn  Mn11  1  0.337808  0.175617  0.562114  1
  Pt  Pt12  1  1.018005  1.027874  0.655990  1
  Pt  Pt13  1  0.509869  1.027874  0.655990  1
  Pt  Pt14  1  0.516818  0.533636  0.660564  1
  Pt  Pt15  1  1.011538  0.523075  0.657723  1
  O  O16  1  0.497075  0.494151  0.751544  1
  H  H17  1  0.587615  0.675231  0.767648  1
