# generated using pymatgen
data_Ni3HPt4Au9O
_symmetry_space_group_name_H-M   'P 1'
_cell_length_a   5.68184987
_cell_length_b   5.68184987
_cell_length_c   21.95881649
_cell_angle_alpha   90.00000000
_cell_angle_beta   90.00000000
_cell_angle_gamma   120.00000000
_symmetry_Int_Tables_number   1
_chemical_formula_structural   Ni3HPt4Au9O
_chemical_formula_sum   'Ni3 H1 Pt4 Au9 O1'
_cell_volume   613.93030324
_cell_formula_units_Z   1
loop_
 _symmetry_equiv_pos_site_id
 _symmetry_equiv_pos_as_xyz
  1  'x, y, z'
loop_
 _atom_site_type_symbol
 _atom_site_label
 _atom_site_symmetry_multiplicity
 _atom_site_fract_x
 _atom_site_fract_y
 _atom_site_fract_z
 _atom_site_occupancy
  Au  Au0  1  0.000000  0.000000  0.341548  1
  Au  Au1  1  0.500000  0.000000  0.341548  1
  Au  Au2  1  0.500000  0.500000  0.341548  1
  Ni  Ni3  1  0.000000  0.500000  0.341548  1
  Au  Au4  1  0.666667  0.333333  0.447183  1
  Au  Au5  1  0.166667  0.333333  0.447183  1
  Au  Au6  1  0.166667  0.833333  0.447183  1
  Ni  Ni7  1  0.666667  0.833333  0.447183  1
  Au  Au8  1  0.337971  0.667126  0.554648  1
  Au  Au9  1  0.829155  0.667126  0.554648  1
  Au  Au10  1  0.832656  0.165312  0.552222  1
  Ni  Ni11  1  0.336198  0.172396  0.560993  1
  Pt  Pt12  1  0.021870  0.032169  0.658812  1
  Pt  Pt13  1  0.510299  0.032169  0.658812  1
  Pt  Pt14  1  0.514669  0.529337  0.666709  1
  Pt  Pt15  1  0.012841  0.525681  0.661798  1
  O  O16  1  0.513874  0.527748  0.758097  1
  H  H17  1  0.609166  0.718333  0.771004  1
