# generated using pymatgen
data_Nb3HPt4Au9O
_symmetry_space_group_name_H-M   'P 1'
_cell_length_a   5.90990072
_cell_length_b   5.90990072
_cell_length_c   22.23812060
_cell_angle_alpha   90.00000000
_cell_angle_beta   90.00000000
_cell_angle_gamma   120.00000000
_symmetry_Int_Tables_number   1
_chemical_formula_structural   Nb3HPt4Au9O
_chemical_formula_sum   'Nb3 H1 Pt4 Au9 O1'
_cell_volume   672.64990206
_cell_formula_units_Z   1
loop_
 _symmetry_equiv_pos_site_id
 _symmetry_equiv_pos_as_xyz
  1  'x, y, z'
loop_
 _atom_site_type_symbol
 _atom_site_label
 _atom_site_symmetry_multiplicity
 _atom_site_fract_x
 _atom_site_fract_y
 _atom_site_fract_z
 _atom_site_occupancy
  Au  Au0  1  0.000000  0.000000  0.337259  1
  Au  Au1  1  0.500000  0.000000  0.337259  1
  Au  Au2  1  0.500000  0.500000  0.337259  1
  Nb  Nb3  1  0.000000  0.500000  0.337259  1
  Au  Au4  1  0.666667  0.333333  0.445753  1
  Au  Au5  1  0.166667  0.333333  0.445753  1
  Au  Au6  1  0.166667  0.833333  0.445753  1
  Nb  Nb7  1  0.666667  0.833333  0.445753  1
  Au  Au8  1  0.347826  0.688082  0.550418  1
  Au  Au9  1  0.840257  0.688082  0.550418  1
  Au  Au10  1  0.840514  0.181027  0.548887  1
  Nb  Nb11  1  0.348870  0.197740  0.571925  1
  Pt  Pt12  1  1.024766  0.044515  0.655889  1
  Pt  Pt13  1  0.519750  0.044515  0.655889  1
  Pt  Pt14  1  0.532846  0.565692  0.656767  1
  Pt  Pt15  1  1.016841  0.533683  0.655228  1
  O  O16  1  0.522962  0.545925  0.748170  1
  H  H17  1  0.611907  0.723814  0.764296  1
