# generated using pymatgen
data_HOs3Pt4Au9O
_symmetry_space_group_name_H-M   'P 1'
_cell_length_a   5.76509088
_cell_length_b   5.76509088
_cell_length_c   22.06076549
_cell_angle_alpha   90.00000000
_cell_angle_beta   90.00000000
_cell_angle_gamma   120.00000000
_symmetry_Int_Tables_number   1
_chemical_formula_structural   HOs3Pt4Au9O
_chemical_formula_sum   'Os3 H1 Pt4 Au9 O1'
_cell_volume   634.98508719
_cell_formula_units_Z   1
loop_
 _symmetry_equiv_pos_site_id
 _symmetry_equiv_pos_as_xyz
  1  'x, y, z'
loop_
 _atom_site_type_symbol
 _atom_site_label
 _atom_site_symmetry_multiplicity
 _atom_site_fract_x
 _atom_site_fract_y
 _atom_site_fract_z
 _atom_site_occupancy
  Au  Au0  1  0.000000  0.000000  0.339970  1
  Au  Au1  1  0.500000  0.000000  0.339970  1
  Au  Au2  1  0.500000  0.500000  0.339970  1
  Os  Os3  1  0.000000  0.500000  0.339970  1
  Au  Au4  1  0.666667  0.333333  0.446657  1
  Au  Au5  1  0.166667  0.333333  0.446657  1
  Au  Au6  1  0.166667  0.833333  0.446657  1
  Os  Os7  1  0.666667  0.833333  0.446657  1
  Au  Au8  1  0.337464  0.665463  0.553037  1
  Au  Au9  1  0.827999  0.665463  0.553037  1
  Au  Au10  1  0.830994  0.161988  0.551129  1
  Os  Os11  1  0.331370  0.162740  0.559696  1
  Pt  Pt12  1  0.015644  0.014447  0.656627  1
  Pt  Pt13  1  0.498803  0.014447  0.656627  1
  Pt  Pt14  1  0.503990  0.507980  0.662504  1
  Pt  Pt15  1  0.002249  0.504498  0.658257  1
  O  O16  1  0.519371  0.538742  0.754126  1
  H  H17  1  0.614012  0.728023  0.765545  1
