# generated using pymatgen
data_HPt4Pb3Au9O
_symmetry_space_group_name_H-M   'P 1'
_cell_length_a   6.18863725
_cell_length_b   6.18863725
_cell_length_c   22.57950173
_cell_angle_alpha   90.00000000
_cell_angle_beta   90.00000000
_cell_angle_gamma   120.00000000
_symmetry_Int_Tables_number   1
_chemical_formula_structural   HPt4Pb3Au9O
_chemical_formula_sum   'H1 Pt4 Pb3 Au9 O1'
_cell_volume   748.91932915
_cell_formula_units_Z   1
loop_
 _symmetry_equiv_pos_site_id
 _symmetry_equiv_pos_as_xyz
  1  'x, y, z'
loop_
 _atom_site_type_symbol
 _atom_site_label
 _atom_site_symmetry_multiplicity
 _atom_site_fract_x
 _atom_site_fract_y
 _atom_site_fract_z
 _atom_site_occupancy
  Au  Au0  1  0.000000  0.000000  0.332160  1
  Au  Au1  1  0.500000  0.000000  0.332160  1
  Au  Au2  1  0.500000  0.500000  0.332160  1
  Pb  Pb3  1  -0.000000  0.500000  0.332160  1
  Au  Au4  1  0.666667  0.333333  0.444053  1
  Au  Au5  1  0.166667  0.333333  0.444053  1
  Au  Au6  1  0.166667  0.833333  0.444053  1
  Pb  Pb7  1  0.666667  0.833333  0.444053  1
  Au  Au8  1  0.336505  0.654803  0.559355  1
  Au  Au9  1  0.818298  0.654803  0.559355  1
  Au  Au10  1  0.845130  0.190261  0.550065  1
  Pb  Pb11  1  0.326067  0.152135  0.565573  1
  Pt  Pt12  1  -0.027138  0.007670  0.656163  1
  Pt  Pt13  1  0.534808  0.007670  0.656163  1
  Pt  Pt14  1  0.526164  0.552327  0.664452  1
  Pt  Pt15  1  -0.010472  0.479056  0.655338  1
  O  O16  1  0.490385  0.480771  0.750642  1
  H  H17  1  0.570978  0.641957  0.771103  1
