# generated using pymatgen
data_HPt7Au9O
_symmetry_space_group_name_H-M   'P 1'
_cell_length_a   5.80689824
_cell_length_b   5.80689824
_cell_length_c   22.11196883
_cell_angle_alpha   90.00000000
_cell_angle_beta   90.00000000
_cell_angle_gamma   120.00000000
_symmetry_Int_Tables_number   1
_chemical_formula_structural   HPt7Au9O
_chemical_formula_sum   'H1 Pt7 Au9 O1'
_cell_volume   645.72332687
_cell_formula_units_Z   1
loop_
 _symmetry_equiv_pos_site_id
 _symmetry_equiv_pos_as_xyz
  1  'x, y, z'
loop_
 _atom_site_type_symbol
 _atom_site_label
 _atom_site_symmetry_multiplicity
 _atom_site_fract_x
 _atom_site_fract_y
 _atom_site_fract_z
 _atom_site_occupancy
  Au  Au0  1  0.000000  0.000000  0.339183  1
  Au  Au1  1  0.500000  0.000000  0.339183  1
  Au  Au2  1  0.500000  0.500000  0.339183  1
  Pt  Pt3  1  -0.000000  0.500000  0.339183  1
  Au  Au4  1  0.666667  0.333333  0.446394  1
  Au  Au5  1  0.166667  0.333333  0.446394  1
  Au  Au6  1  0.166667  0.833333  0.446394  1
  Pt  Pt7  1  0.666667  0.833333  0.446394  1
  Au  Au8  1  0.339262  0.673577  0.554622  1
  Au  Au9  1  0.834315  0.673577  0.554622  1
  Au  Au10  1  0.836253  0.172506  0.553179  1
  Pt  Pt11  1  0.339405  0.178810  0.556533  1
  Pt  Pt12  1  0.009047  0.009135  0.658289  1
  Pt  Pt13  1  0.500088  0.009135  0.658289  1
  Pt  Pt14  1  0.499625  0.499251  0.664939  1
  Pt  Pt15  1  0.001942  0.503884  0.659533  1
  O  O16  1  0.514051  0.528102  0.754844  1
  H  H17  1  0.608770  0.717541  0.765116  1
