# generated using pymatgen
data_Re3HPt4Au9O
_symmetry_space_group_name_H-M   'P 1'
_cell_length_a   5.80024946
_cell_length_b   5.80024946
_cell_length_c   22.10382577
_cell_angle_alpha   90.00000000
_cell_angle_beta   90.00000000
_cell_angle_gamma   120.00000000
_symmetry_Int_Tables_number   1
_chemical_formula_structural   Re3HPt4Au9O
_chemical_formula_sum   'Re3 H1 Pt4 Au9 O1'
_cell_volume   644.00824036
_cell_formula_units_Z   1
loop_
 _symmetry_equiv_pos_site_id
 _symmetry_equiv_pos_as_xyz
  1  'x, y, z'
loop_
 _atom_site_type_symbol
 _atom_site_label
 _atom_site_symmetry_multiplicity
 _atom_site_fract_x
 _atom_site_fract_y
 _atom_site_fract_z
 _atom_site_occupancy
  Au  Au0  1  0.000000  0.000000  0.339308  1
  Au  Au1  1  0.500000  0.000000  0.339308  1
  Au  Au2  1  0.500000  0.500000  0.339308  1
  Re  Re3  1  -0.000000  0.500000  0.339308  1
  Au  Au4  1  0.666667  0.333333  0.446436  1
  Au  Au5  1  0.166667  0.333333  0.446436  1
  Au  Au6  1  0.166667  0.833333  0.446436  1
  Re  Re7  1  0.666667  0.833333  0.446436  1
  Au  Au8  1  0.335766  0.660701  0.551720  1
  Au  Au9  1  0.824935  0.660701  0.551720  1
  Au  Au10  1  0.827447  0.154894  0.549880  1
  Re  Re11  1  0.328598  0.157197  0.563191  1
  Pt  Pt12  1  0.013601  0.007987  0.655449  1
  Pt  Pt13  1  0.494387  0.007987  0.655449  1
  Pt  Pt14  1  0.506094  0.512187  0.659685  1
  Pt  Pt15  1  -0.002651  0.494699  0.657491  1
  O  O16  1  0.513410  0.526821  0.751627  1
  H  H17  1  0.606364  0.712727  0.764741  1
