# generated using pymatgen
data_HPt4Rh3Au9O
_symmetry_space_group_name_H-M   'P 1'
_cell_length_a   5.76386632
_cell_length_b   5.76386632
_cell_length_c   22.05926571
_cell_angle_alpha   90.00000000
_cell_angle_beta   90.00000000
_cell_angle_gamma   120.00000000
_symmetry_Int_Tables_number   1
_chemical_formula_structural   HPt4Rh3Au9O
_chemical_formula_sum   'H1 Rh3 Pt4 Au9 O1'
_cell_volume   634.67221028
_cell_formula_units_Z   1
loop_
 _symmetry_equiv_pos_site_id
 _symmetry_equiv_pos_as_xyz
  1  'x, y, z'
loop_
 _atom_site_type_symbol
 _atom_site_label
 _atom_site_symmetry_multiplicity
 _atom_site_fract_x
 _atom_site_fract_y
 _atom_site_fract_z
 _atom_site_occupancy
  Au  Au0  1  0.000000  0.000000  0.339993  1
  Au  Au1  1  0.500000  0.000000  0.339993  1
  Au  Au2  1  0.500000  0.500000  0.339993  1
  Rh  Rh3  1  0.000000  0.500000  0.339993  1
  Au  Au4  1  0.666667  0.333333  0.446664  1
  Au  Au5  1  0.166667  0.333333  0.446664  1
  Au  Au6  1  0.166667  0.833333  0.446664  1
  Rh  Rh7  1  0.666667  0.833333  0.446664  1
  Au  Au8  1  0.344556  0.680987  0.554518  1
  Au  Au9  1  0.836033  0.680982  0.554467  1
  Au  Au10  1  0.839576  0.179612  0.553096  1
  Rh  Rh11  1  0.340764  0.181948  0.556731  1
  Pt  Pt12  1  0.024967  0.037926  0.658308  1
  Pt  Pt13  1  0.511709  1.037978  0.658304  1
  Pt  Pt14  1  0.514625  0.530631  0.665185  1
  Pt  Pt15  1  0.015489  0.532503  0.659588  1
  O  O16  1  0.520338  0.546764  0.755983  1
  H  H17  1  0.623442  0.735652  0.767855  1
