# generated using pymatgen
data_HRu3Pt4Au9O
_symmetry_space_group_name_H-M   'P 1'
_cell_length_a   5.76187779
_cell_length_b   5.76187779
_cell_length_c   22.05683028
_cell_angle_alpha   90.00000000
_cell_angle_beta   90.00000000
_cell_angle_gamma   120.00000000
_symmetry_Int_Tables_number   1
_chemical_formula_structural   HRu3Pt4Au9O
_chemical_formula_sum   'Ru3 H1 Pt4 Au9 O1'
_cell_volume   634.16434252
_cell_formula_units_Z   1
loop_
 _symmetry_equiv_pos_site_id
 _symmetry_equiv_pos_as_xyz
  1  'x, y, z'
loop_
 _atom_site_type_symbol
 _atom_site_label
 _atom_site_symmetry_multiplicity
 _atom_site_fract_x
 _atom_site_fract_y
 _atom_site_fract_z
 _atom_site_occupancy
  Au  Au0  1  0.000000  0.000000  0.340031  1
  Au  Au1  1  0.500000  0.000000  0.340031  1
  Au  Au2  1  0.500000  0.500000  0.340031  1
  Ru  Ru3  1  0.000000  0.500000  0.340031  1
  Au  Au4  1  0.666667  0.333333  0.446677  1
  Au  Au5  1  0.166667  0.333333  0.446677  1
  Au  Au6  1  0.166667  0.833333  0.446677  1
  Ru  Ru7  1  0.666667  0.833333  0.446677  1
  Au  Au8  1  0.342203  0.674177  0.553873  1
  Au  Au9  1  0.831974  0.674177  0.553873  1
  Au  Au10  1  0.836108  0.172217  0.551661  1
  Ru  Ru11  1  0.335722  0.171443  0.558076  1
  Pt  Pt12  1  0.027388  0.038468  0.656704  1
  Pt  Pt13  1  0.511080  0.038468  0.656704  1
  Pt  Pt14  1  0.517006  0.534012  0.663860  1
  Pt  Pt15  1  0.014598  0.529195  0.659209  1
  O  O16  1  0.521264  0.542528  0.755197  1
  H  H17  1  0.614969  0.729939  0.768254  1
