# generated using pymatgen
data_Sc3HPt4Au9O
_symmetry_space_group_name_H-M   'P 1'
_cell_length_a   5.96155476
_cell_length_b   5.96155476
_cell_length_c   22.30138362
_cell_angle_alpha   90.00000000
_cell_angle_beta   90.00000000
_cell_angle_gamma   120.00000000
_symmetry_Int_Tables_number   1
_chemical_formula_structural   Sc3HPt4Au9O
_chemical_formula_sum   'Sc3 H1 Pt4 Au9 O1'
_cell_volume   686.40670282
_cell_formula_units_Z   1
loop_
 _symmetry_equiv_pos_site_id
 _symmetry_equiv_pos_as_xyz
  1  'x, y, z'
loop_
 _atom_site_type_symbol
 _atom_site_label
 _atom_site_symmetry_multiplicity
 _atom_site_fract_x
 _atom_site_fract_y
 _atom_site_fract_z
 _atom_site_occupancy
  Au  Au0  1  0.000000  0.000000  0.336302  1
  Au  Au1  1  0.500000  0.000000  0.336302  1
  Au  Au2  1  0.500000  0.500000  0.336302  1
  Sc  Sc3  1  -0.000000  0.500000  0.336302  1
  Au  Au4  1  0.666667  0.333333  0.445434  1
  Au  Au5  1  0.166667  0.333333  0.445434  1
  Au  Au6  1  0.166667  0.833333  0.445434  1
  Sc  Sc7  1  0.666667  0.833333  0.445434  1
  Au  Au8  1  0.340158  0.665360  0.551617  1
  Au  Au9  1  0.825202  0.665360  0.551617  1
  Au  Au10  1  0.835242  0.170485  0.550403  1
  Sc  Sc11  1  0.333165  0.166331  0.564860  1
  Pt  Pt12  1  0.010493  1.017636  0.652976  1
  Pt  Pt13  1  0.507143  1.017636  0.652976  1
  Pt  Pt14  1  0.513296  0.526592  0.656602  1
  Pt  Pt15  1  0.008652  0.517303  0.653997  1
  O  O16  1  0.474835  0.449670  0.745664  1
  H  H17  1  0.559896  0.619792  0.765082  1
