# generated using pymatgen
data_Sn3HPt4Au9O
_symmetry_space_group_name_H-M   'P 1'
_cell_length_a   6.06035397
_cell_length_b   6.06035397
_cell_length_c   22.42238744
_cell_angle_alpha   90.00000000
_cell_angle_beta   90.00000000
_cell_angle_gamma   120.00000000
_symmetry_Int_Tables_number   1
_chemical_formula_structural   Sn3HPt4Au9O
_chemical_formula_sum   'Sn3 H1 Pt4 Au9 O1'
_cell_volume   713.19528900
_cell_formula_units_Z   1
loop_
 _symmetry_equiv_pos_site_id
 _symmetry_equiv_pos_as_xyz
  1  'x, y, z'
loop_
 _atom_site_type_symbol
 _atom_site_label
 _atom_site_symmetry_multiplicity
 _atom_site_fract_x
 _atom_site_fract_y
 _atom_site_fract_z
 _atom_site_occupancy
  Au  Au0  1  0.000000  0.000000  0.334487  1
  Au  Au1  1  0.500000  0.000000  0.334487  1
  Au  Au2  1  0.500000  0.500000  0.334487  1
  Sn  Sn3  1  -0.000000  0.500000  0.334487  1
  Au  Au4  1  0.666667  0.333333  0.444829  1
  Au  Au5  1  0.166667  0.333333  0.444829  1
  Au  Au6  1  0.166667  0.833333  0.444829  1
  Sn  Sn7  1  0.666667  0.833333  0.444829  1
  Au  Au8  1  0.335407  0.660764  0.555798  1
  Au  Au9  1  0.825357  0.660764  0.555798  1
  Au  Au10  1  0.836175  0.172350  0.551368  1
  Sn  Sn11  1  0.333335  0.166671  0.568380  1
  Pt  Pt12  1  -0.011562  1.004461  0.656444  1
  Pt  Pt13  1  0.516022  1.004461  0.656444  1
  Pt  Pt14  1  0.513484  0.526967  0.662312  1
  Pt  Pt15  1  -0.000530  0.498941  0.655645  1
  O  O16  1  0.483519  0.467037  0.750693  1
  H  H17  1  0.567151  0.634303  0.770004  1
