# generated using pymatgen
data_Sb3HPt4Au9O
_symmetry_space_group_name_H-M   'P 1'
_cell_length_a   6.08435038
_cell_length_b   6.08435038
_cell_length_c   22.45177692
_cell_angle_alpha   90.00000000
_cell_angle_beta   90.00000000
_cell_angle_gamma   120.00000000
_symmetry_Int_Tables_number   1
_chemical_formula_structural   Sb3HPt4Au9O
_chemical_formula_sum   'Sb3 H1 Pt4 Au9 O1'
_cell_volume   719.79658426
_cell_formula_units_Z   1
loop_
 _symmetry_equiv_pos_site_id
 _symmetry_equiv_pos_as_xyz
  1  'x, y, z'
loop_
 _atom_site_type_symbol
 _atom_site_label
 _atom_site_symmetry_multiplicity
 _atom_site_fract_x
 _atom_site_fract_y
 _atom_site_fract_z
 _atom_site_occupancy
  Au  Au0  1  0.000000  0.000000  0.334049  1
  Au  Au1  1  0.500000  0.000000  0.334049  1
  Au  Au2  1  0.500000  0.500000  0.334049  1
  Sb  Sb3  1  0.000000  0.500000  0.334049  1
  Au  Au4  1  0.666667  0.333333  0.444683  1
  Au  Au5  1  0.166667  0.333333  0.444683  1
  Au  Au6  1  0.166667  0.833333  0.444683  1
  Sb  Sb7  1  0.666667  0.833333  0.444683  1
  Au  Au8  1  0.332013  0.658117  0.553748  1
  Au  Au9  1  0.826104  0.658117  0.553748  1
  Au  Au10  1  0.834936  0.169872  0.549810  1
  Sb  Sb11  1  0.334012  0.168023  0.573981  1
  Pt  Pt12  1  0.983686  0.998320  0.656037  1
  Pt  Pt13  1  0.514635  0.998320  0.656037  1
  Pt  Pt14  1  0.516718  0.533436  0.661080  1
  Pt  Pt15  1  -0.004927  0.490146  0.653170  1
  O  O16  1  0.495502  0.491004  0.749948  1
  H  H17  1  0.579881  0.659762  0.768148  1
