# generated using pymatgen
data_Ti3HPt4Au9O
_symmetry_space_group_name_H-M   'P 1'
_cell_length_a   5.86762100
_cell_length_b   5.86762100
_cell_length_c   22.18633873
_cell_angle_alpha   90.00000000
_cell_angle_beta   90.00000000
_cell_angle_gamma   120.00000000
_symmetry_Int_Tables_number   1
_chemical_formula_structural   Ti3HPt4Au9O
_chemical_formula_sum   'Ti3 H1 Pt4 Au9 O1'
_cell_volume   661.51604067
_cell_formula_units_Z   1
loop_
 _symmetry_equiv_pos_site_id
 _symmetry_equiv_pos_as_xyz
  1  'x, y, z'
loop_
 _atom_site_type_symbol
 _atom_site_label
 _atom_site_symmetry_multiplicity
 _atom_site_fract_x
 _atom_site_fract_y
 _atom_site_fract_z
 _atom_site_occupancy
  Au  Au0  1  0.000000  0.000000  0.338046  1
  Au  Au1  1  0.500000  0.000000  0.338046  1
  Au  Au2  1  0.500000  0.500000  0.338046  1
  Ti  Ti3  1  0.000000  0.500000  0.338046  1
  Au  Au4  1  0.666667  0.333333  0.446015  1
  Au  Au5  1  0.166667  0.333333  0.446015  1
  Au  Au6  1  0.166667  0.833333  0.446015  1
  Ti  Ti7  1  0.666667  0.833333  0.446015  1
  Au  Au8  1  0.350709  0.690350  0.549997  1
  Au  Au9  1  0.839641  0.690350  0.549997  1
  Au  Au10  1  0.842331  0.184661  0.549355  1
  Ti  Ti11  1  0.351569  0.203139  0.574976  1
  Pt  Pt12  1  1.030915  0.054599  0.655339  1
  Pt  Pt13  1  0.523684  0.054599  0.655339  1
  Pt  Pt14  1  0.535518  0.571037  0.657124  1
  Pt  Pt15  1  1.023145  0.546290  0.655081  1
  O  O16  1  0.519017  0.538034  0.748628  1
  H  H17  1  0.608256  0.716513  0.765211  1
