# generated using pymatgen
data_Ta3HPt4Au9O
_symmetry_space_group_name_H-M   'P 1'
_cell_length_a   5.89375373
_cell_length_b   5.89375373
_cell_length_c   22.21834466
_cell_angle_alpha   90.00000000
_cell_angle_beta   90.00000000
_cell_angle_gamma   120.00000000
_symmetry_Int_Tables_number   1
_chemical_formula_structural   Ta3HPt4Au9O
_chemical_formula_sum   'Ta3 H1 Pt4 Au9 O1'
_cell_volume   668.38439458
_cell_formula_units_Z   1
loop_
 _symmetry_equiv_pos_site_id
 _symmetry_equiv_pos_as_xyz
  1  'x, y, z'
loop_
 _atom_site_type_symbol
 _atom_site_label
 _atom_site_symmetry_multiplicity
 _atom_site_fract_x
 _atom_site_fract_y
 _atom_site_fract_z
 _atom_site_occupancy
  Au  Au0  1  0.000000  0.000000  0.337559  1
  Au  Au1  1  0.500000  0.000000  0.337559  1
  Au  Au2  1  0.500000  0.500000  0.337559  1
  Ta  Ta3  1  0.000000  0.500000  0.337559  1
  Au  Au4  1  0.666667  0.333333  0.445853  1
  Au  Au5  1  0.166667  0.333333  0.445853  1
  Au  Au6  1  0.166667  0.833333  0.445853  1
  Ta  Ta7  1  0.666667  0.833333  0.445853  1
  Au  Au8  1  0.350459  0.690780  0.550123  1
  Au  Au9  1  0.840321  0.690780  0.550123  1
  Au  Au10  1  0.841036  0.182071  0.548718  1
  Ta  Ta11  1  0.350272  0.200543  0.574879  1
  Pt  Pt12  1  0.020891  1.040401  0.657341  1
  Pt  Pt13  1  0.519510  1.040401  0.657341  1
  Pt  Pt14  1  0.531266  0.562532  0.657811  1
  Pt  Pt15  1  0.015665  0.531330  0.655081  1
  O  O16  1  0.523618  0.547235  0.749794  1
  H  H17  1  0.612779  0.725559  0.765897  1
