# generated using pymatgen
data_V3HPt4Au9O
_symmetry_space_group_name_H-M   'P 1'
_cell_length_a   5.84132118
_cell_length_b   5.84132118
_cell_length_c   22.15412815
_cell_angle_alpha   90.00000000
_cell_angle_beta   90.00000000
_cell_angle_gamma   120.00000000
_symmetry_Int_Tables_number   1
_chemical_formula_structural   V3HPt4Au9O
_chemical_formula_sum   'V3 H1 Pt4 Au9 O1'
_cell_volume   654.64742951
_cell_formula_units_Z   1
loop_
 _symmetry_equiv_pos_site_id
 _symmetry_equiv_pos_as_xyz
  1  'x, y, z'
loop_
 _atom_site_type_symbol
 _atom_site_label
 _atom_site_symmetry_multiplicity
 _atom_site_fract_x
 _atom_site_fract_y
 _atom_site_fract_z
 _atom_site_occupancy
  Au  Au0  1  0.000000  0.000000  0.338537  1
  Au  Au1  1  0.500000  0.000000  0.338537  1
  Au  Au2  1  0.500000  0.500000  0.338537  1
  V  V3  1  -0.000000  0.500000  0.338537  1
  Au  Au4  1  0.666667  0.333333  0.446179  1
  Au  Au5  1  0.166667  0.333333  0.446179  1
  Au  Au6  1  0.166667  0.833333  0.446179  1
  V  V7  1  0.666667  0.833333  0.446179  1
  Au  Au8  1  0.345916  0.681602  0.549597  1
  Au  Au9  1  0.835686  0.681602  0.549597  1
  Au  Au10  1  0.837239  0.174478  0.548339  1
  V  V11  1  0.347696  0.195392  0.571746  1
  Pt  Pt12  1  0.029354  1.044030  0.653647  1
  Pt  Pt13  1  0.514675  1.044030  0.653647  1
  Pt  Pt14  1  0.530116  0.560233  0.656424  1
  Pt  Pt15  1  0.015587  0.531174  0.655036  1
  O  O16  1  0.523255  0.546511  0.748130  1
  H  H17  1  0.613887  0.727775  0.763582  1
