# generated using pymatgen
data_Y3HPt4Au9O
_symmetry_space_group_name_H-M   'P 1'
_cell_length_a   6.15881175
_cell_length_b   6.15881175
_cell_length_c   22.54297310
_cell_angle_alpha   90.00000000
_cell_angle_beta   90.00000000
_cell_angle_gamma   120.00000000
_symmetry_Int_Tables_number   1
_chemical_formula_structural   Y3HPt4Au9O
_chemical_formula_sum   'Y3 H1 Pt4 Au9 O1'
_cell_volume   740.51810986
_cell_formula_units_Z   1
loop_
 _symmetry_equiv_pos_site_id
 _symmetry_equiv_pos_as_xyz
  1  'x, y, z'
loop_
 _atom_site_type_symbol
 _atom_site_label
 _atom_site_symmetry_multiplicity
 _atom_site_fract_x
 _atom_site_fract_y
 _atom_site_fract_z
 _atom_site_occupancy
  Au  Au0  1  0.000000  0.000000  0.332698  1
  Au  Au1  1  0.500000  0.000000  0.332698  1
  Au  Au2  1  0.500000  0.500000  0.332698  1
  Y  Y3  1  0.000000  0.500000  0.332698  1
  Au  Au4  1  0.666667  0.333333  0.444233  1
  Au  Au5  1  0.166667  0.333333  0.444233  1
  Au  Au6  1  0.166667  0.833333  0.444233  1
  Y  Y7  1  0.666667  0.833333  0.444233  1
  Au  Au8  1  0.340372  0.659803  0.552030  1
  Au  Au9  1  0.819430  0.659803  0.552030  1
  Au  Au10  1  0.843742  0.187484  0.552400  1
  Y  Y11  1  0.329520  0.159040  0.561633  1
  Pt  Pt12  1  0.989312  1.002049  0.651125  1
  Pt  Pt13  1  0.512737  1.002049  0.651125  1
  Pt  Pt14  1  0.515142  0.530284  0.655400  1
  Pt  Pt15  1  1.021246  0.542491  0.651914  1
  O  O16  1  0.473966  0.447932  0.742383  1
  H  H17  1  0.555519  0.611039  0.762348  1
