# generated using pymatgen
data_Cu9Ag3HPt4O
_symmetry_space_group_name_H-M   'P 1'
_cell_length_a   5.34667282
_cell_length_b   5.34667282
_cell_length_c   21.54831012
_cell_angle_alpha   90.00000000
_cell_angle_beta   90.00000000
_cell_angle_gamma   120.00000000
_symmetry_Int_Tables_number   1
_chemical_formula_structural   Cu9Ag3HPt4O
_chemical_formula_sum   'Cu9 Ag3 H1 Pt4 O1'
_cell_volume   533.47130895
_cell_formula_units_Z   1
loop_
 _symmetry_equiv_pos_site_id
 _symmetry_equiv_pos_as_xyz
  1  'x, y, z'
loop_
 _atom_site_type_symbol
 _atom_site_label
 _atom_site_symmetry_multiplicity
 _atom_site_fract_x
 _atom_site_fract_y
 _atom_site_fract_z
 _atom_site_occupancy
  Cu  Cu0  1  0.000000  0.000000  0.348055  1
  Cu  Cu1  1  0.500000  1.000000  0.348055  1
  Cu  Cu2  1  0.500000  0.500000  0.348055  1
  Ag  Ag3  1  0.000000  0.500000  0.348055  1
  Cu  Cu4  1  0.666667  0.333333  0.449352  1
  Cu  Cu5  1  0.166667  0.333333  0.449352  1
  Cu  Cu6  1  0.166667  0.833333  0.449352  1
  Ag  Ag7  1  0.666667  0.833333  0.449352  1
  Cu  Cu8  1  0.332202  0.665926  0.553645  1
  Cu  Cu9  1  0.833724  0.665926  0.553645  1
  Cu  Cu10  1  0.835474  0.170948  0.551696  1
  Ag  Ag11  1  0.336414  0.172828  0.549155  1
  Pt  Pt12  1  0.993212  0.989792  0.656950  1
  Pt  Pt13  1  0.496580  0.989792  0.656950  1
  Pt  Pt14  1  0.495333  0.490667  0.666037  1
  Pt  Pt15  1  0.995091  0.490183  0.654437  1
  O  O16  1  0.481083  0.462165  0.760158  1
  H  H17  1  0.580797  0.661594  0.775304  1
