# generated using pymatgen
data_Al3Cu9HPt4O
_symmetry_space_group_name_H-M   'P 1'
_cell_length_a   5.22106394
_cell_length_b   5.22106394
_cell_length_c   21.39447128
_cell_angle_alpha   90.00000000
_cell_angle_beta   90.00000000
_cell_angle_gamma   120.00000000
_symmetry_Int_Tables_number   1
_chemical_formula_structural   Al3Cu9HPt4O
_chemical_formula_sum   'Al3 Cu9 H1 Pt4 O1'
_cell_volume   505.06841867
_cell_formula_units_Z   1
loop_
 _symmetry_equiv_pos_site_id
 _symmetry_equiv_pos_as_xyz
  1  'x, y, z'
loop_
 _atom_site_type_symbol
 _atom_site_label
 _atom_site_symmetry_multiplicity
 _atom_site_fract_x
 _atom_site_fract_y
 _atom_site_fract_z
 _atom_site_occupancy
  Cu  Cu0  1  0.000000  0.000000  0.350558  1
  Cu  Cu1  1  0.500000  1.000000  0.350558  1
  Cu  Cu2  1  0.500000  0.500000  0.350558  1
  Al  Al3  1  0.000000  0.500000  0.350558  1
  Cu  Cu4  1  0.666667  0.333333  0.450186  1
  Cu  Cu5  1  0.166667  0.333333  0.450186  1
  Cu  Cu6  1  0.166667  0.833333  0.450186  1
  Al  Al7  1  0.666667  0.833333  0.450186  1
  Cu  Cu8  1  0.337796  0.665472  0.549017  1
  Cu  Cu9  1  0.827676  0.665472  0.549017  1
  Cu  Cu10  1  0.834780  0.169561  0.547249  1
  Al  Al11  1  0.336396  0.172791  0.556622  1
  Pt  Pt12  1  1.003955  1.008368  0.653358  1
  Pt  Pt13  1  0.504413  1.008368  0.653358  1
  Pt  Pt14  1  0.505475  0.510950  0.660577  1
  Pt  Pt15  1  1.003696  0.507392  0.653018  1
  O  O16  1  0.479756  0.459511  0.757615  1
  H  H17  1  0.579010  0.658021  0.775868  1
