# generated using pymatgen
data_Cu9As3HPt4O
_symmetry_space_group_name_H-M   'P 1'
_cell_length_a   5.31194479
_cell_length_b   5.31194479
_cell_length_c   21.50577714
_cell_angle_alpha   90.00000000
_cell_angle_beta   90.00000000
_cell_angle_gamma   120.00000000
_symmetry_Int_Tables_number   1
_chemical_formula_structural   Cu9As3HPt4O
_chemical_formula_sum   'Cu9 As3 H1 Pt4 O1'
_cell_volume   525.52439120
_cell_formula_units_Z   1
loop_
 _symmetry_equiv_pos_site_id
 _symmetry_equiv_pos_as_xyz
  1  'x, y, z'
loop_
 _atom_site_type_symbol
 _atom_site_label
 _atom_site_symmetry_multiplicity
 _atom_site_fract_x
 _atom_site_fract_y
 _atom_site_fract_z
 _atom_site_occupancy
  Cu  Cu0  1  0.000000  0.000000  0.348744  1
  Cu  Cu1  1  0.500000  0.000000  0.348744  1
  Cu  Cu2  1  0.500000  0.500000  0.348744  1
  As  As3  1  1.000000  0.500000  0.348744  1
  Cu  Cu4  1  0.666667  0.333333  0.449581  1
  Cu  Cu5  1  0.166667  0.333333  0.449581  1
  Cu  Cu6  1  0.166667  0.833333  0.449581  1
  As  As7  1  0.666667  0.833333  0.449581  1
  Cu  Cu8  1  0.327141  0.659373  0.551292  1
  Cu  Cu9  1  0.832232  0.659373  0.551292  1
  Cu  Cu10  1  0.833731  0.167462  0.549515  1
  As  As11  1  0.344218  0.188436  0.560174  1
  Pt  Pt12  1  -0.010671  -0.016702  0.655580  1
  Pt  Pt13  1  0.493969  -0.016702  0.655580  1
  Pt  Pt14  1  0.492688  0.485375  0.667386  1
  Pt  Pt15  1  -0.007284  0.485432  0.655756  1
  O  O16  1  0.485391  0.470781  0.762439  1
  H  H17  1  0.585421  0.670842  0.777918  1
