# generated using pymatgen
data_Cr3Cu9HPt4O
_symmetry_space_group_name_H-M   'P 1'
_cell_length_a   5.28882306
_cell_length_b   5.28882306
_cell_length_c   21.47745892
_cell_angle_alpha   90.00000000
_cell_angle_beta   90.00000000
_cell_angle_gamma   120.00000000
_symmetry_Int_Tables_number   1
_chemical_formula_structural   Cr3Cu9HPt4O
_chemical_formula_sum   'Cr3 Cu9 H1 Pt4 O1'
_cell_volume   520.27337880
_cell_formula_units_Z   1
loop_
 _symmetry_equiv_pos_site_id
 _symmetry_equiv_pos_as_xyz
  1  'x, y, z'
loop_
 _atom_site_type_symbol
 _atom_site_label
 _atom_site_symmetry_multiplicity
 _atom_site_fract_x
 _atom_site_fract_y
 _atom_site_fract_z
 _atom_site_occupancy
  Cu  Cu0  1  0.000000  0.000000  0.349203  1
  Cu  Cu1  1  0.500000  0.000000  0.349203  1
  Cu  Cu2  1  0.500000  0.500000  0.349203  1
  Cr  Cr3  1  0.000000  0.500000  0.349203  1
  Cu  Cu4  1  0.666667  0.333333  0.449734  1
  Cu  Cu5  1  0.166667  0.333333  0.449734  1
  Cu  Cu6  1  0.166667  0.833333  0.449734  1
  Cr  Cr7  1  0.666667  0.833333  0.449734  1
  Cu  Cu8  1  0.336671  0.659229  0.546125  1
  Cu  Cu9  1  0.822558  0.659229  0.546125  1
  Cu  Cu10  1  0.832228  0.164455  0.543725  1
  Cr  Cr11  1  0.328472  0.156944  0.552660  1
  Pt  Pt12  1  0.005972  0.010452  0.647853  1
  Pt  Pt13  1  0.504479  1.010452  0.647853  1
  Pt  Pt14  1  0.506302  0.512603  0.655469  1
  Pt  Pt15  1  0.004077  0.508153  0.649805  1
  O  O16  1  0.517604  0.535209  0.752466  1
  H  H17  1  0.619228  0.738455  0.766524  1
