# generated using pymatgen
data_Fe3Cu9HPt4O
_symmetry_space_group_name_H-M   'P 1'
_cell_length_a   5.16612659
_cell_length_b   5.16612659
_cell_length_c   21.32718705
_cell_angle_alpha   90.00000000
_cell_angle_beta   90.00000000
_cell_angle_gamma   120.00000000
_symmetry_Int_Tables_number   1
_chemical_formula_structural   Fe3Cu9HPt4O
_chemical_formula_sum   'Fe3 Cu9 H1 Pt4 O1'
_cell_volume   492.94026920
_cell_formula_units_Z   1
loop_
 _symmetry_equiv_pos_site_id
 _symmetry_equiv_pos_as_xyz
  1  'x, y, z'
loop_
 _atom_site_type_symbol
 _atom_site_label
 _atom_site_symmetry_multiplicity
 _atom_site_fract_x
 _atom_site_fract_y
 _atom_site_fract_z
 _atom_site_occupancy
  Cu  Cu0  1  0.000000  0.000000  0.351664  1
  Cu  Cu1  1  0.500000  0.000000  0.351664  1
  Cu  Cu2  1  0.500000  0.500000  0.351664  1
  Fe  Fe3  1  -0.000000  0.500000  0.351664  1
  Cu  Cu4  1  0.666667  0.333333  0.450555  1
  Cu  Cu5  1  0.166667  0.333333  0.450555  1
  Cu  Cu6  1  0.166667  0.833333  0.450555  1
  Fe  Fe7  1  0.666667  0.833333  0.450555  1
  Cu  Cu8  1  0.337657  0.667282  0.547633  1
  Cu  Cu9  1  0.829625  0.667282  0.547633  1
  Cu  Cu10  1  0.833031  0.166063  0.545933  1
  Fe  Fe11  1  0.337138  0.174275  0.553877  1
  Pt  Pt12  1  0.000293  -0.000515  0.651782  1
  Pt  Pt13  1  0.499192  -0.000515  0.651782  1
  Pt  Pt14  1  0.498892  0.497785  0.664385  1
  Pt  Pt15  1  -0.000871  0.498259  0.652225  1
  O  O16  1  0.515350  0.530700  0.761066  1
  H  H17  1  0.620365  0.740731  0.773949  1
