# generated using pymatgen
data_Cu9Ge3HPt4O
_symmetry_space_group_name_H-M   'P 1'
_cell_length_a   5.27235467
_cell_length_b   5.27235467
_cell_length_c   21.45728934
_cell_angle_alpha   90.00000000
_cell_angle_beta   90.00000000
_cell_angle_gamma   120.00000000
_symmetry_Int_Tables_number   1
_chemical_formula_structural   Cu9Ge3HPt4O
_chemical_formula_sum   'Cu9 Ge3 H1 Pt4 O1'
_cell_volume   516.55280523
_cell_formula_units_Z   1
loop_
 _symmetry_equiv_pos_site_id
 _symmetry_equiv_pos_as_xyz
  1  'x, y, z'
loop_
 _atom_site_type_symbol
 _atom_site_label
 _atom_site_symmetry_multiplicity
 _atom_site_fract_x
 _atom_site_fract_y
 _atom_site_fract_z
 _atom_site_occupancy
  Cu  Cu0  1  0.000000  0.000000  0.349532  1
  Cu  Cu1  1  0.500000  0.000000  0.349532  1
  Cu  Cu2  1  0.500000  0.500000  0.349532  1
  Ge  Ge3  1  -0.000000  0.500000  0.349532  1
  Cu  Cu4  1  0.666667  0.333333  0.449844  1
  Cu  Cu5  1  0.166667  0.333333  0.449844  1
  Cu  Cu6  1  0.166667  0.833333  0.449844  1
  Ge  Ge7  1  0.666667  0.833333  0.449844  1
  Cu  Cu8  1  0.330882  0.656977  0.551890  1
  Cu  Cu9  1  0.826095  0.656977  0.551890  1
  Cu  Cu10  1  0.833067  0.166135  0.549451  1
  Ge  Ge11  1  0.335828  0.171655  0.556485  1
  Pt  Pt12  1  -0.000007  0.002452  0.655120  1
  Pt  Pt13  1  0.502459  1.002452  0.655120  1
  Pt  Pt14  1  0.502438  0.504876  0.664527  1
  Pt  Pt15  1  0.001283  0.502565  0.656477  1
  O  O16  1  0.479606  0.459211  0.760049  1
  H  H17  1  0.578617  0.657234  0.777514  1
