# generated using pymatgen
data_Ga3Cu9HPt4O
_symmetry_space_group_name_H-M   'P 1'
_cell_length_a   5.24175174
_cell_length_b   5.24175174
_cell_length_c   21.41980856
_cell_angle_alpha   90.00000000
_cell_angle_beta   90.00000000
_cell_angle_gamma   120.00000000
_symmetry_Int_Tables_number   1
_chemical_formula_structural   Ga3Cu9HPt4O
_chemical_formula_sum   'Ga3 Cu9 H1 Pt4 O1'
_cell_volume   509.68178449
_cell_formula_units_Z   1
loop_
 _symmetry_equiv_pos_site_id
 _symmetry_equiv_pos_as_xyz
  1  'x, y, z'
loop_
 _atom_site_type_symbol
 _atom_site_label
 _atom_site_symmetry_multiplicity
 _atom_site_fract_x
 _atom_site_fract_y
 _atom_site_fract_z
 _atom_site_occupancy
  Cu  Cu0  1  0.000000  0.000000  0.350143  1
  Cu  Cu1  1  0.500000  0.000000  0.350143  1
  Cu  Cu2  1  0.500000  0.500000  0.350143  1
  Ga  Ga3  1  0.000000  0.500000  0.350143  1
  Cu  Cu4  1  0.666667  0.333333  0.450048  1
  Cu  Cu5  1  0.166667  0.333333  0.450048  1
  Cu  Cu6  1  0.166667  0.833333  0.450048  1
  Ga  Ga7  1  0.666667  0.833333  0.450048  1
  Cu  Cu8  1  0.336387  0.665977  0.550496  1
  Cu  Cu9  1  0.829590  0.665977  0.550496  1
  Cu  Cu10  1  0.835423  0.170846  0.548852  1
  Ga  Ga11  1  0.337755  0.175509  0.555500  1
  Pt  Pt12  1  0.001065  0.003703  0.655222  1
  Pt  Pt13  1  0.502639  0.003703  0.655222  1
  Pt  Pt14  1  0.503019  0.506039  0.663099  1
  Pt  Pt15  1  0.001562  0.503125  0.654576  1
  O  O16  1  0.480920  0.461840  0.759481  1
  H  H17  1  0.580512  0.661025  0.776978  1
