# generated using pymatgen
data_Cu9HIr3Pt4O
_symmetry_space_group_name_H-M   'P 1'
_cell_length_a   5.23659561
_cell_length_b   5.23659561
_cell_length_c   21.41349361
_cell_angle_alpha   90.00000000
_cell_angle_beta   90.00000000
_cell_angle_gamma   120.00000000
_symmetry_Int_Tables_number   1
_chemical_formula_structural   Cu9HIr3Pt4O
_chemical_formula_sum   'Cu9 Ir3 H1 Pt4 O1'
_cell_volume   508.52959618
_cell_formula_units_Z   1
loop_
 _symmetry_equiv_pos_site_id
 _symmetry_equiv_pos_as_xyz
  1  'x, y, z'
loop_
 _atom_site_type_symbol
 _atom_site_label
 _atom_site_symmetry_multiplicity
 _atom_site_fract_x
 _atom_site_fract_y
 _atom_site_fract_z
 _atom_site_occupancy
  Cu  Cu0  1  0.000000  0.000000  0.350246  1
  Cu  Cu1  1  0.500000  0.000000  0.350246  1
  Cu  Cu2  1  0.500000  0.500000  0.350246  1
  Ir  Ir3  1  0.000000  0.500000  0.350246  1
  Cu  Cu4  1  0.666667  0.333333  0.450082  1
  Cu  Cu5  1  0.166667  0.333333  0.450082  1
  Cu  Cu6  1  0.166667  0.833333  0.450082  1
  Ir  Ir7  1  0.666667  0.833333  0.450082  1
  Cu  Cu8  1  0.338282  0.676334  0.549929  1
  Cu  Cu9  1  0.838051  0.676334  0.549929  1
  Cu  Cu10  1  0.836863  0.173727  0.548997  1
  Ir  Ir11  1  0.342033  0.184066  0.552722  1
  Pt  Pt12  1  -0.008508  0.984399  0.656699  1
  Pt  Pt13  1  0.492907  0.984399  0.656699  1
  Pt  Pt14  1  0.490936  0.481871  0.667849  1
  Pt  Pt15  1  -0.007297  0.485406  0.653521  1
  O  O16  1  0.512037  0.524074  0.762786  1
  H  H17  1  0.616388  0.732776  0.774443  1
