# generated using pymatgen
data_In3Cu9HPt4O
_symmetry_space_group_name_H-M   'P 1'
_cell_length_a   5.69583403
_cell_length_b   5.69583403
_cell_length_c   21.97594352
_cell_angle_alpha   90.00000000
_cell_angle_beta   90.00000000
_cell_angle_gamma   120.00000000
_symmetry_Int_Tables_number   1
_chemical_formula_structural   In3Cu9HPt4O
_chemical_formula_sum   'In3 Cu9 H1 Pt4 O1'
_cell_volume   617.43723226
_cell_formula_units_Z   1
loop_
 _symmetry_equiv_pos_site_id
 _symmetry_equiv_pos_as_xyz
  1  'x, y, z'
loop_
 _atom_site_type_symbol
 _atom_site_label
 _atom_site_symmetry_multiplicity
 _atom_site_fract_x
 _atom_site_fract_y
 _atom_site_fract_z
 _atom_site_occupancy
  Cu  Cu0  1  0.000000  0.000000  0.341282  1
  Cu  Cu1  1  0.500000  0.000000  0.341282  1
  Cu  Cu2  1  0.500000  0.500000  0.341282  1
  In  In3  1  1.000000  0.500000  0.341282  1
  Cu  Cu4  1  0.666667  0.333333  0.447094  1
  Cu  Cu5  1  0.166667  0.333333  0.447094  1
  Cu  Cu6  1  0.166667  0.833333  0.447094  1
  In  In7  1  0.666667  0.833333  0.447094  1
  Cu  Cu8  1  0.327656  0.657109  0.547067  1
  Cu  Cu9  1  0.829453  0.657109  0.547067  1
  Cu  Cu10  1  0.843503  0.187006  0.545462  1
  In  In11  1  0.333511  0.167021  0.546205  1
  Pt  Pt12  1  -0.006659  0.996922  0.643669  1
  Pt  Pt13  1  0.503581  0.996922  0.643669  1
  Pt  Pt14  1  0.503677  0.507353  0.648179  1
  Pt  Pt15  1  0.000081  0.500161  0.643185  1
  O  O16  1  0.480467  0.460934  0.740778  1
  H  H17  1  0.571406  0.642812  0.758572  1
