# generated using pymatgen
data_Cu9Mo3HPt4O
_symmetry_space_group_name_H-M   'P 1'
_cell_length_a   5.32808107
_cell_length_b   5.32808107
_cell_length_c   21.52553996
_cell_angle_alpha   90.00000000
_cell_angle_beta   90.00000000
_cell_angle_gamma   120.00000000
_symmetry_Int_Tables_number   1
_chemical_formula_structural   Cu9Mo3HPt4O
_chemical_formula_sum   'Cu9 Mo3 H1 Pt4 O1'
_cell_volume   529.20791922
_cell_formula_units_Z   1
loop_
 _symmetry_equiv_pos_site_id
 _symmetry_equiv_pos_as_xyz
  1  'x, y, z'
loop_
 _atom_site_type_symbol
 _atom_site_label
 _atom_site_symmetry_multiplicity
 _atom_site_fract_x
 _atom_site_fract_y
 _atom_site_fract_z
 _atom_site_occupancy
  Cu  Cu0  1  0.000000  0.000000  0.348423  1
  Cu  Cu1  1  0.500000  1.000000  0.348423  1
  Cu  Cu2  1  0.500000  0.500000  0.348423  1
  Mo  Mo3  1  0.000000  0.500000  0.348423  1
  Cu  Cu4  1  0.666667  0.333333  0.449474  1
  Cu  Cu5  1  0.166667  0.333333  0.449474  1
  Cu  Cu6  1  0.166667  0.833333  0.449474  1
  Mo  Mo7  1  0.666667  0.833333  0.449474  1
  Cu  Cu8  1  0.336943  0.656053  0.549661  1
  Cu  Cu9  1  0.819110  0.656053  0.549661  1
  Cu  Cu10  1  0.832196  0.164392  0.547406  1
  Mo  Mo11  1  0.324348  0.148695  0.554203  1
  Pt  Pt12  1  0.998656  0.997418  0.653746  1
  Pt  Pt13  1  0.498763  0.997418  0.653746  1
  Pt  Pt14  1  0.500371  0.500741  0.659467  1
  Pt  Pt15  1  0.998236  0.496472  0.652448  1
  O  O16  1  0.510278  0.520556  0.756187  1
  H  H17  1  0.610691  0.721383  0.770748  1
