# generated using pymatgen
data_Nb3Cu9HPt4O
_symmetry_space_group_name_H-M   'P 1'
_cell_length_a   5.42135361
_cell_length_b   5.42135361
_cell_length_c   21.63977504
_cell_angle_alpha   90.00000000
_cell_angle_beta   90.00000000
_cell_angle_gamma   120.00000000
_symmetry_Int_Tables_number   1
_chemical_formula_structural   Nb3Cu9HPt4O
_chemical_formula_sum   'Nb3 Cu9 H1 Pt4 O1'
_cell_volume   550.80623082
_cell_formula_units_Z   1
loop_
 _symmetry_equiv_pos_site_id
 _symmetry_equiv_pos_as_xyz
  1  'x, y, z'
loop_
 _atom_site_type_symbol
 _atom_site_label
 _atom_site_symmetry_multiplicity
 _atom_site_fract_x
 _atom_site_fract_y
 _atom_site_fract_z
 _atom_site_occupancy
  Cu  Cu0  1  0.000000  0.000000  0.346584  1
  Cu  Cu1  1  0.500000  0.000000  0.346584  1
  Cu  Cu2  1  0.500000  0.500000  0.346584  1
  Nb  Nb3  1  -0.000000  0.500000  0.346584  1
  Cu  Cu4  1  0.666667  0.333333  0.448861  1
  Cu  Cu5  1  0.166667  0.333333  0.448861  1
  Cu  Cu6  1  0.166667  0.833333  0.448861  1
  Nb  Nb7  1  0.666667  0.833333  0.448861  1
  Cu  Cu8  1  0.341865  0.675612  0.549089  1
  Cu  Cu9  1  0.833747  0.675612  0.549089  1
  Cu  Cu10  1  0.842596  0.185193  0.546035  1
  Nb  Nb11  1  0.337814  0.175628  0.555042  1
  Pt  Pt12  1  0.010812  0.024546  0.651533  1
  Pt  Pt13  1  0.513734  0.024546  0.651533  1
  Pt  Pt14  1  0.516738  0.533476  0.654018  1
  Pt  Pt15  1  0.012056  0.524111  0.650274  1
  O  O16  1  0.512337  0.524674  0.750541  1
  H  H17  1  0.609625  0.719250  0.766784  1
