# generated using pymatgen
data_Cu9HOs3Pt4O
_symmetry_space_group_name_H-M   'P 1'
_cell_length_a   5.22948536
_cell_length_b   5.22948536
_cell_length_c   21.40478538
_cell_angle_alpha   90.00000000
_cell_angle_beta   90.00000000
_cell_angle_gamma   120.00000000
_symmetry_Int_Tables_number   1
_chemical_formula_structural   Cu9HOs3Pt4O
_chemical_formula_sum   'Cu9 Os3 H1 Pt4 O1'
_cell_volume   506.94332967
_cell_formula_units_Z   1
loop_
 _symmetry_equiv_pos_site_id
 _symmetry_equiv_pos_as_xyz
  1  'x, y, z'
loop_
 _atom_site_type_symbol
 _atom_site_label
 _atom_site_symmetry_multiplicity
 _atom_site_fract_x
 _atom_site_fract_y
 _atom_site_fract_z
 _atom_site_occupancy
  Cu  Cu0  1  0.000000  0.000000  0.350389  1
  Cu  Cu1  1  0.500000  0.000000  0.350389  1
  Cu  Cu2  1  0.500000  0.500000  0.350389  1
  Os  Os3  1  0.000000  0.500000  0.350389  1
  Cu  Cu4  1  0.666667  0.333333  0.450130  1
  Cu  Cu5  1  0.166667  0.333333  0.450130  1
  Cu  Cu6  1  0.166667  0.833333  0.450130  1
  Os  Os7  1  0.666667  0.833333  0.450130  1
  Cu  Cu8  1  0.338294  0.675660  0.549602  1
  Cu  Cu9  1  0.837366  0.675660  0.549602  1
  Cu  Cu10  1  0.837927  0.175854  0.548304  1
  Os  Os11  1  0.340987  0.181973  0.553041  1
  Pt  Pt12  1  0.998094  -0.004184  0.655441  1
  Pt  Pt13  1  0.497722  -0.004184  0.655441  1
  Pt  Pt14  1  0.496942  0.493884  0.664930  1
  Pt  Pt15  1  -0.002288  0.495424  0.654329  1
  O  O16  1  0.526167  0.552335  0.760976  1
  H  H17  1  0.630811  0.761622  0.772317  1
