# generated using pymatgen
data_Cu9HPt7O
_symmetry_space_group_name_H-M   'P 1'
_cell_length_a   5.27685839
_cell_length_b   5.27685839
_cell_length_c   21.46280525
_cell_angle_alpha   90.00000000
_cell_angle_beta   90.00000000
_cell_angle_gamma   120.00000000
_symmetry_Int_Tables_number   1
_chemical_formula_structural   Cu9HPt7O
_chemical_formula_sum   'Cu9 H1 Pt7 O1'
_cell_volume   517.56868940
_cell_formula_units_Z   1
loop_
 _symmetry_equiv_pos_site_id
 _symmetry_equiv_pos_as_xyz
  1  'x, y, z'
loop_
 _atom_site_type_symbol
 _atom_site_label
 _atom_site_symmetry_multiplicity
 _atom_site_fract_x
 _atom_site_fract_y
 _atom_site_fract_z
 _atom_site_occupancy
  Cu  Cu0  1  0.000000  0.000000  0.349442  1
  Cu  Cu1  1  0.500000  0.000000  0.349442  1
  Cu  Cu2  1  0.500000  0.500000  0.349442  1
  Pt  Pt3  1  -0.000000  0.500000  0.349442  1
  Cu  Cu4  1  0.666667  0.333333  0.449814  1
  Cu  Cu5  1  0.166667  0.333333  0.449814  1
  Cu  Cu6  1  0.166667  0.833333  0.449814  1
  Pt  Pt7  1  0.666667  0.833333  0.449814  1
  Cu  Cu8  1  0.331212  0.666901  0.550948  1
  Cu  Cu9  1  0.835690  0.666901  0.550948  1
  Cu  Cu10  1  0.832119  0.164238  0.550367  1
  Pt  Pt11  1  0.338472  0.176943  0.552122  1
  Pt  Pt12  1  0.981872  -0.033172  0.657282  1
  Pt  Pt13  1  0.484956  -0.033172  0.657282  1
  Pt  Pt14  1  0.482538  0.465075  0.669135  1
  Pt  Pt15  1  0.984044  0.468088  0.654701  1
  O  O16  1  0.495900  0.491800  0.763331  1
  H  H17  1  0.599350  0.698700  0.775232  1
