# generated using pymatgen
data_Cu9HPd3Pt4O
_symmetry_space_group_name_H-M   'P 1'
_cell_length_a   5.26642878
_cell_length_b   5.26642878
_cell_length_c   21.45003164
_cell_angle_alpha   90.00000000
_cell_angle_beta   90.00000000
_cell_angle_gamma   120.00000000
_symmetry_Int_Tables_number   1
_chemical_formula_structural   Cu9HPd3Pt4O
_chemical_formula_sum   'Cu9 Pd3 H1 Pt4 O1'
_cell_volume   515.21796688
_cell_formula_units_Z   1
loop_
 _symmetry_equiv_pos_site_id
 _symmetry_equiv_pos_as_xyz
  1  'x, y, z'
loop_
 _atom_site_type_symbol
 _atom_site_label
 _atom_site_symmetry_multiplicity
 _atom_site_fract_x
 _atom_site_fract_y
 _atom_site_fract_z
 _atom_site_occupancy
  Cu  Cu0  1  0.000000  0.000000  0.349650  1
  Cu  Cu1  1  0.500000  1.000000  0.349650  1
  Cu  Cu2  1  0.500000  0.500000  0.349650  1
  Pd  Pd3  1  -0.000000  0.500000  0.349650  1
  Cu  Cu4  1  0.666667  0.333333  0.449883  1
  Cu  Cu5  1  0.166667  0.333333  0.449883  1
  Cu  Cu6  1  0.166667  0.833333  0.449883  1
  Pd  Pd7  1  0.666667  0.833333  0.449883  1
  Cu  Cu8  1  0.332406  0.666766  0.551744  1
  Cu  Cu9  1  0.834359  0.666766  0.551744  1
  Cu  Cu10  1  0.832232  0.164464  0.550607  1
  Pd  Pd11  1  0.337957  0.175913  0.551407  1
  Pt  Pt12  1  -0.014210  0.974229  0.657714  1
  Pt  Pt13  1  0.488440  0.974229  0.657714  1
  Pt  Pt14  1  0.486461  0.472922  0.670122  1
  Pt  Pt15  1  -0.012657  0.474687  0.654119  1
  O  O16  1  0.492553  0.485105  0.764444  1
  H  H17  1  0.595686  0.691372  0.777263  1
