# generated using pymatgen
data_Cu9Re3HPt4O
_symmetry_space_group_name_H-M   'P 1'
_cell_length_a   5.25509442
_cell_length_b   5.25509442
_cell_length_c   21.43614994
_cell_angle_alpha   90.00000000
_cell_angle_beta   90.00000000
_cell_angle_gamma   120.00000000
_symmetry_Int_Tables_number   1
_chemical_formula_structural   Cu9Re3HPt4O
_chemical_formula_sum   'Cu9 Re3 H1 Pt4 O1'
_cell_volume   512.67066178
_cell_formula_units_Z   1
loop_
 _symmetry_equiv_pos_site_id
 _symmetry_equiv_pos_as_xyz
  1  'x, y, z'
loop_
 _atom_site_type_symbol
 _atom_site_label
 _atom_site_symmetry_multiplicity
 _atom_site_fract_x
 _atom_site_fract_y
 _atom_site_fract_z
 _atom_site_occupancy
  Cu  Cu0  1  0.000000  0.000000  0.349876  1
  Cu  Cu1  1  0.500000  0.000000  0.349876  1
  Cu  Cu2  1  0.500000  0.500000  0.349876  1
  Re  Re3  1  -0.000000  0.500000  0.349876  1
  Cu  Cu4  1  0.666667  0.333333  0.449959  1
  Cu  Cu5  1  0.166667  0.333333  0.449959  1
  Cu  Cu6  1  0.166667  0.833333  0.449959  1
  Re  Re7  1  0.666667  0.833333  0.449959  1
  Cu  Cu8  1  0.330261  0.650705  0.550030  1
  Cu  Cu9  1  0.820445  0.650705  0.550030  1
  Cu  Cu10  1  0.829883  0.159765  0.548540  1
  Re  Re11  1  0.323859  0.147718  0.553288  1
  Pt  Pt12  1  0.992701  0.983886  0.654596  1
  Pt  Pt13  1  0.491185  0.983886  0.654596  1
  Pt  Pt14  1  0.491935  0.483871  0.662028  1
  Pt  Pt15  1  0.991305  0.482611  0.656560  1
  O  O16  1  0.513748  0.527496  0.759180  1
  H  H17  1  0.616576  0.733151  0.772397  1
