# generated using pymatgen
data_Cu9HPt4Rh3O
_symmetry_space_group_name_H-M   'P 1'
_cell_length_a   5.22713903
_cell_length_b   5.22713903
_cell_length_c   21.40191172
_cell_angle_alpha   90.00000000
_cell_angle_beta   90.00000000
_cell_angle_gamma   120.00000000
_symmetry_Int_Tables_number   1
_chemical_formula_structural   Cu9HPt4Rh3O
_chemical_formula_sum   'Cu9 H1 Rh3 Pt4 O1'
_cell_volume   506.42053005
_cell_formula_units_Z   1
loop_
 _symmetry_equiv_pos_site_id
 _symmetry_equiv_pos_as_xyz
  1  'x, y, z'
loop_
 _atom_site_type_symbol
 _atom_site_label
 _atom_site_symmetry_multiplicity
 _atom_site_fract_x
 _atom_site_fract_y
 _atom_site_fract_z
 _atom_site_occupancy
  Cu  Cu0  1  0.000000  0.000000  0.350436  1
  Cu  Cu1  1  0.500000  1.000000  0.350436  1
  Cu  Cu2  1  0.500000  0.500000  0.350436  1
  Rh  Rh3  1  0.000000  0.500000  0.350436  1
  Cu  Cu4  1  0.666667  0.333333  0.450145  1
  Cu  Cu5  1  0.166667  0.333333  0.450145  1
  Cu  Cu6  1  0.166667  0.833333  0.450145  1
  Rh  Rh7  1  0.666667  0.833333  0.450145  1
  Cu  Cu8  1  0.336575  0.672540  0.550320  1
  Cu  Cu9  1  0.835966  0.672540  0.550320  1
  Cu  Cu10  1  0.834457  0.168913  0.549379  1
  Rh  Rh11  1  0.340618  0.181237  0.553651  1
  Pt  Pt12  1  -0.012981  -0.024128  0.657473  1
  Pt  Pt13  1  0.488853  -0.024128  0.657473  1
  Pt  Pt14  1  0.486689  0.473378  0.670451  1
  Pt  Pt15  1  -0.011437  0.477126  0.653464  1
  O  O16  1  0.505612  0.511223  0.765121  1
  H  H17  1  0.610424  0.720847  0.776410  1
