# generated using pymatgen
data_Cu9HRu3Pt4O
_symmetry_space_group_name_H-M   'P 1'
_cell_length_a   5.22420239
_cell_length_b   5.22420239
_cell_length_c   21.39831509
_cell_angle_alpha   90.00000000
_cell_angle_beta   90.00000000
_cell_angle_gamma   120.00000000
_symmetry_Int_Tables_number   1
_chemical_formula_structural   Cu9HRu3Pt4O
_chemical_formula_sum   'Cu9 Ru3 H1 Pt4 O1'
_cell_volume   505.76666038
_cell_formula_units_Z   1
loop_
 _symmetry_equiv_pos_site_id
 _symmetry_equiv_pos_as_xyz
  1  'x, y, z'
loop_
 _atom_site_type_symbol
 _atom_site_label
 _atom_site_symmetry_multiplicity
 _atom_site_fract_x
 _atom_site_fract_y
 _atom_site_fract_z
 _atom_site_occupancy
  Cu  Cu0  1  0.000000  0.000000  0.350495  1
  Cu  Cu1  1  0.500000  0.000000  0.350495  1
  Cu  Cu2  1  0.500000  0.500000  0.350495  1
  Ru  Ru3  1  0.000000  0.500000  0.350495  1
  Cu  Cu4  1  0.666667  0.333333  0.450165  1
  Cu  Cu5  1  0.166667  0.333333  0.450165  1
  Cu  Cu6  1  0.166667  0.833333  0.450165  1
  Ru  Ru7  1  0.666667  0.833333  0.450165  1
  Cu  Cu8  1  0.336027  0.667959  0.550201  1
  Cu  Cu9  1  0.831932  0.667959  0.550201  1
  Cu  Cu10  1  0.834295  0.168589  0.549146  1
  Ru  Ru11  1  0.336690  0.173380  0.554154  1
  Pt  Pt12  1  0.990662  -0.017846  0.656641  1
  Pt  Pt13  1  0.491492  -0.017846  0.656641  1
  Pt  Pt14  1  0.489781  0.479562  0.668636  1
  Pt  Pt15  1  -0.008733  0.482534  0.654319  1
  O  O16  1  0.509183  0.518367  0.764597  1
  H  H17  1  0.613061  0.726121  0.777322  1
