# generated using pymatgen
data_Cu9Sn3HPt4O
_symmetry_space_group_name_H-M   'P 1'
_cell_length_a   5.49277011
_cell_length_b   5.49277011
_cell_length_c   21.72724203
_cell_angle_alpha   90.00000000
_cell_angle_beta   90.00000000
_cell_angle_gamma   120.00000000
_symmetry_Int_Tables_number   1
_chemical_formula_structural   Cu9Sn3HPt4O
_chemical_formula_sum   'Cu9 Sn3 H1 Pt4 O1'
_cell_volume   567.69893578
_cell_formula_units_Z   1
loop_
 _symmetry_equiv_pos_site_id
 _symmetry_equiv_pos_as_xyz
  1  'x, y, z'
loop_
 _atom_site_type_symbol
 _atom_site_label
 _atom_site_symmetry_multiplicity
 _atom_site_fract_x
 _atom_site_fract_y
 _atom_site_fract_z
 _atom_site_occupancy
  Cu  Cu0  1  0.000000  0.000000  0.345189  1
  Cu  Cu1  1  0.500000  0.000000  0.345189  1
  Cu  Cu2  1  0.500000  0.500000  0.345189  1
  Sn  Sn3  1  -0.000000  0.500000  0.345189  1
  Cu  Cu4  1  0.666667  0.333333  0.448396  1
  Cu  Cu5  1  0.166667  0.333333  0.448396  1
  Cu  Cu6  1  0.166667  0.833333  0.448396  1
  Sn  Sn7  1  0.666667  0.833333  0.448396  1
  Cu  Cu8  1  0.328188  0.658946  0.554289  1
  Cu  Cu9  1  0.830758  0.658946  0.554289  1
  Cu  Cu10  1  0.838022  0.176044  0.552465  1
  Sn  Sn11  1  0.334256  0.168512  0.553727  1
  Pt  Pt12  1  0.993184  -0.007651  0.655167  1
  Pt  Pt13  1  0.499166  0.992349  0.655167  1
  Pt  Pt14  1  0.498600  0.497199  0.660230  1
  Pt  Pt15  1  0.996954  0.493909  0.654604  1
  O  O16  1  0.481196  0.462391  0.754534  1
  H  H17  1  0.576985  0.653971  0.770985  1
