# generated using pymatgen
data_Sc3Cu9HPt4O
_symmetry_space_group_name_H-M   'P 1'
_cell_length_a   5.51903771
_cell_length_b   5.51903771
_cell_length_c   21.75941313
_cell_angle_alpha   90.00000000
_cell_angle_beta   90.00000000
_cell_angle_gamma   120.00000000
_symmetry_Int_Tables_number   1
_chemical_formula_structural   Sc3Cu9HPt4O
_chemical_formula_sum   'Sc3 Cu9 H1 Pt4 O1'
_cell_volume   573.99027277
_cell_formula_units_Z   1
loop_
 _symmetry_equiv_pos_site_id
 _symmetry_equiv_pos_as_xyz
  1  'x, y, z'
loop_
 _atom_site_type_symbol
 _atom_site_label
 _atom_site_symmetry_multiplicity
 _atom_site_fract_x
 _atom_site_fract_y
 _atom_site_fract_z
 _atom_site_occupancy
  Cu  Cu0  1  0.000000  0.000000  0.344678  1
  Cu  Cu1  1  0.500000  0.000000  0.344678  1
  Cu  Cu2  1  0.500000  0.500000  0.344678  1
  Sc  Sc3  1  -0.000000  0.500000  0.344678  1
  Cu  Cu4  1  0.666667  0.333333  0.448226  1
  Cu  Cu5  1  0.166667  0.333333  0.448226  1
  Cu  Cu6  1  0.166667  0.833333  0.448226  1
  Sc  Sc7  1  0.666667  0.833333  0.448226  1
  Cu  Cu8  1  0.337614  0.666025  0.550785  1
  Cu  Cu9  1  0.828411  0.666025  0.550785  1
  Cu  Cu10  1  0.842179  0.184359  0.549248  1
  Sc  Sc11  1  0.333570  0.167140  0.556003  1
  Pt  Pt12  1  0.006411  0.018160  0.650822  1
  Pt  Pt13  1  0.511750  0.018160  0.650822  1
  Pt  Pt14  1  0.513132  0.526265  0.653908  1
  Pt  Pt15  1  0.009749  0.519499  0.649371  1
  O  O16  1  0.474623  0.449247  0.747828  1
  H  H17  1  0.567030  0.634060  0.767231  1
