# generated using pymatgen
data_Cu9Sb3HPt4O
_symmetry_space_group_name_H-M   'P 1'
_cell_length_a   5.53488939
_cell_length_b   5.53488939
_cell_length_c   21.77882739
_cell_angle_alpha   90.00000000
_cell_angle_beta   90.00000000
_cell_angle_gamma   120.00000000
_symmetry_Int_Tables_number   1
_chemical_formula_structural   Cu9Sb3HPt4O
_chemical_formula_sum   'Cu9 Sb3 H1 Pt4 O1'
_cell_volume   577.80729061
_cell_formula_units_Z   1
loop_
 _symmetry_equiv_pos_site_id
 _symmetry_equiv_pos_as_xyz
  1  'x, y, z'
loop_
 _atom_site_type_symbol
 _atom_site_label
 _atom_site_symmetry_multiplicity
 _atom_site_fract_x
 _atom_site_fract_y
 _atom_site_fract_z
 _atom_site_occupancy
  Cu  Cu0  1  0.000000  0.000000  0.344371  1
  Cu  Cu1  1  0.500000  0.000000  0.344371  1
  Cu  Cu2  1  0.500000  0.500000  0.344371  1
  Sb  Sb3  1  0.000000  0.500000  0.344371  1
  Cu  Cu4  1  0.666667  0.333333  0.448124  1
  Cu  Cu5  1  0.166667  0.333333  0.448124  1
  Cu  Cu6  1  0.166667  0.833333  0.448124  1
  Sb  Sb7  1  0.666667  0.833333  0.448124  1
  Cu  Cu8  1  0.322573  0.656061  0.553099  1
  Cu  Cu9  1  0.833488  0.656061  0.553099  1
  Cu  Cu10  1  0.840223  0.180447  0.551363  1
  Sb  Sb11  1  0.335868  0.171735  0.554079  1
  Pt  Pt12  1  -0.007729  -0.008228  0.653388  1
  Pt  Pt13  1  0.499500  -0.008228  0.653388  1
  Pt  Pt14  1  0.498214  0.496428  0.658837  1
  Pt  Pt15  1  -0.002780  0.494440  0.653912  1
  O  O16  1  0.483958  0.467917  0.752689  1
  H  H17  1  0.579259  0.658518  0.768762  1
