# generated using pymatgen
data_Ta3Cu9HPt4O
_symmetry_space_group_name_H-M   'P 1'
_cell_length_a   5.40827860
_cell_length_b   5.40827860
_cell_length_c   21.62376148
_cell_angle_alpha   90.00000000
_cell_angle_beta   90.00000000
_cell_angle_gamma   120.00000000
_symmetry_Int_Tables_number   1
_chemical_formula_structural   Ta3Cu9HPt4O
_chemical_formula_sum   'Ta3 Cu9 H1 Pt4 O1'
_cell_volume   547.74697221
_cell_formula_units_Z   1
loop_
 _symmetry_equiv_pos_site_id
 _symmetry_equiv_pos_as_xyz
  1  'x, y, z'
loop_
 _atom_site_type_symbol
 _atom_site_label
 _atom_site_symmetry_multiplicity
 _atom_site_fract_x
 _atom_site_fract_y
 _atom_site_fract_z
 _atom_site_occupancy
  Cu  Cu0  1  0.000000  0.000000  0.346841  1
  Cu  Cu1  1  0.500000  0.000000  0.346841  1
  Cu  Cu2  1  0.500000  0.500000  0.346841  1
  Ta  Ta3  1  -0.000000  0.500000  0.346841  1
  Cu  Cu4  1  0.666667  0.333333  0.448947  1
  Cu  Cu5  1  0.166667  0.333333  0.448947  1
  Cu  Cu6  1  0.166667  0.833333  0.448947  1
  Ta  Ta7  1  0.666667  0.833333  0.448947  1
  Cu  Cu8  1  0.342227  0.676738  0.548691  1
  Cu  Cu9  1  0.834511  0.676738  0.548691  1
  Cu  Cu10  1  0.841223  0.182446  0.545700  1
  Ta  Ta11  1  0.338995  0.177990  0.557168  1
  Pt  Pt12  1  0.009054  0.021326  0.652471  1
  Pt  Pt13  1  0.512271  0.021326  0.652471  1
  Pt  Pt14  1  0.515569  0.531138  0.654516  1
  Pt  Pt15  1  0.010443  0.520887  0.650066  1
  O  O16  1  0.514679  0.529358  0.751609  1
  H  H17  1  0.612202  0.724404  0.767855  1
