# generated using pymatgen
data_Ti3Cu9HPt4O
_symmetry_space_group_name_H-M   'P 1'
_cell_length_a   5.35475478
_cell_length_b   5.35475478
_cell_length_c   21.55820846
_cell_angle_alpha   90.00000000
_cell_angle_beta   90.00000000
_cell_angle_gamma   120.00000000
_symmetry_Int_Tables_number   1
_chemical_formula_structural   Ti3Cu9HPt4O
_chemical_formula_sum   'Ti3 Cu9 H1 Pt4 O1'
_cell_volume   535.33109870
_cell_formula_units_Z   1
loop_
 _symmetry_equiv_pos_site_id
 _symmetry_equiv_pos_as_xyz
  1  'x, y, z'
loop_
 _atom_site_type_symbol
 _atom_site_label
 _atom_site_symmetry_multiplicity
 _atom_site_fract_x
 _atom_site_fract_y
 _atom_site_fract_z
 _atom_site_occupancy
  Cu  Cu0  1  0.000000  0.000000  0.347895  1
  Cu  Cu1  1  0.500000  0.000000  0.347895  1
  Cu  Cu2  1  0.500000  0.500000  0.347895  1
  Ti  Ti3  1  -0.000000  0.500000  0.347895  1
  Cu  Cu4  1  0.666667  0.333333  0.449298  1
  Cu  Cu5  1  0.166667  0.333333  0.449298  1
  Cu  Cu6  1  0.166667  0.833333  0.449298  1
  Ti  Ti7  1  0.666667  0.833333  0.449298  1
  Cu  Cu8  1  0.344915  0.680546  0.548239  1
  Cu  Cu9  1  0.835631  0.680546  0.548239  1
  Cu  Cu10  1  0.842423  0.184846  0.545753  1
  Ti  Ti11  1  0.341167  0.182334  0.558561  1
  Pt  Pt12  1  0.015965  0.033820  0.651420  1
  Pt  Pt13  1  0.517855  0.033820  0.651420  1
  Pt  Pt14  1  0.520702  0.541404  0.653984  1
  Pt  Pt15  1  0.016660  0.533320  0.650115  1
  O  O16  1  0.507251  0.514503  0.751099  1
  H  H17  1  0.604772  0.709544  0.768504  1
