# generated using pymatgen
data_V3Cu9HPt4O
_symmetry_space_group_name_H-M   'P 1'
_cell_length_a   5.28420595
_cell_length_b   5.28420595
_cell_length_c   21.47180414
_cell_angle_alpha   90.00000000
_cell_angle_beta   90.00000000
_cell_angle_gamma   120.00000000
_symmetry_Int_Tables_number   1
_chemical_formula_structural   V3Cu9HPt4O
_chemical_formula_sum   'V3 Cu9 H1 Pt4 O1'
_cell_volume   519.22864094
_cell_formula_units_Z   1
loop_
 _symmetry_equiv_pos_site_id
 _symmetry_equiv_pos_as_xyz
  1  'x, y, z'
loop_
 _atom_site_type_symbol
 _atom_site_label
 _atom_site_symmetry_multiplicity
 _atom_site_fract_x
 _atom_site_fract_y
 _atom_site_fract_z
 _atom_site_occupancy
  Cu  Cu0  1  0.000000  0.000000  0.349295  1
  Cu  Cu1  1  0.500000  0.000000  0.349295  1
  Cu  Cu2  1  0.500000  0.500000  0.349295  1
  V  V3  1  -0.000000  0.500000  0.349295  1
  Cu  Cu4  1  0.666667  0.333333  0.449765  1
  Cu  Cu5  1  0.166667  0.333333  0.449765  1
  Cu  Cu6  1  0.166667  0.833333  0.449765  1
  V  V7  1  0.666667  0.833333  0.449765  1
  Cu  Cu8  1  0.339873  0.669686  0.547056  1
  Cu  Cu9  1  0.829813  0.669686  0.547056  1
  Cu  Cu10  1  0.836934  0.173869  0.544622  1
  V  V11  1  0.334884  0.169768  0.553953  1
  Pt  Pt12  1  1.014054  0.027179  0.649313  1
  Pt  Pt13  1  0.513125  0.027179  0.649313  1
  Pt  Pt14  1  0.515715  0.531430  0.654718  1
  Pt  Pt15  1  1.012711  0.525422  0.651839  1
  O  O16  1  0.517158  0.534316  0.752102  1
  H  H17  1  0.618025  0.736050  0.767241  1
