# generated using pymatgen
data_As3HIr9Pt4O
_symmetry_space_group_name_H-M   'P 1'
_cell_length_a   5.51883445
_cell_length_b   5.51883445
_cell_length_c   21.75916419
_cell_angle_alpha   90.00000000
_cell_angle_beta   90.00000000
_cell_angle_gamma   120.00000000
_symmetry_Int_Tables_number   1
_chemical_formula_structural   As3HIr9Pt4O
_chemical_formula_sum   'As3 Ir9 H1 Pt4 O1'
_cell_volume   573.94142927
_cell_formula_units_Z   1
loop_
 _symmetry_equiv_pos_site_id
 _symmetry_equiv_pos_as_xyz
  1  'x, y, z'
loop_
 _atom_site_type_symbol
 _atom_site_label
 _atom_site_symmetry_multiplicity
 _atom_site_fract_x
 _atom_site_fract_y
 _atom_site_fract_z
 _atom_site_occupancy
  Ir  Ir0  1  0.000000  0.000000  0.344682  1
  Ir  Ir1  1  0.500000  0.000000  0.344682  1
  Ir  Ir2  1  0.500000  0.500000  0.344682  1
  As  As3  1  0.000000  0.500000  0.344682  1
  Ir  Ir4  1  0.666667  0.333333  0.448227  1
  Ir  Ir5  1  0.166667  0.333333  0.448227  1
  Ir  Ir6  1  0.166667  0.833333  0.448227  1
  As  As7  1  0.666667  0.833333  0.448227  1
  Ir  Ir8  1  0.320860  0.640995  0.553187  1
  Ir  Ir9  1  0.820135  0.640995  0.553187  1
  Ir  Ir10  1  0.821334  0.142668  0.546771  1
  As  As11  1  0.337191  0.174383  0.550205  1
  Pt  Pt12  1  1.009252  0.016064  0.654692  1
  Pt  Pt13  1  0.506812  0.016064  0.654692  1
  Pt  Pt14  1  0.512154  0.524307  0.664888  1
  Pt  Pt15  1  0.006648  0.513297  0.657929  1
  O  O16  1  0.472957  0.445914  0.756051  1
  H  H17  1  0.564814  0.629628  0.776109  1
