# generated using pymatgen
data_Ag3HIr9Pt4O
_symmetry_space_group_name_H-M   'P 1'
_cell_length_a   5.55712783
_cell_length_b   5.55712783
_cell_length_c   21.80606381
_cell_angle_alpha   90.00000000
_cell_angle_beta   90.00000000
_cell_angle_gamma   120.00000000
_symmetry_Int_Tables_number   1
_chemical_formula_structural   Ag3HIr9Pt4O
_chemical_formula_sum   'Ag3 Ir9 H1 Pt4 O1'
_cell_volume   583.18814182
_cell_formula_units_Z   1
loop_
 _symmetry_equiv_pos_site_id
 _symmetry_equiv_pos_as_xyz
  1  'x, y, z'
loop_
 _atom_site_type_symbol
 _atom_site_label
 _atom_site_symmetry_multiplicity
 _atom_site_fract_x
 _atom_site_fract_y
 _atom_site_fract_z
 _atom_site_occupancy
  Ir  Ir0  1  0.000000  0.000000  0.343941  1
  Ir  Ir1  1  0.500000  0.000000  0.343941  1
  Ir  Ir2  1  0.500000  0.500000  0.343941  1
  Ag  Ag3  1  -0.000000  0.500000  0.343941  1
  Ir  Ir4  1  0.666667  0.333333  0.447980  1
  Ir  Ir5  1  0.166667  0.333333  0.447980  1
  Ir  Ir6  1  0.166667  0.833333  0.447980  1
  Ag  Ag7  1  0.666667  0.833333  0.447980  1
  Ir  Ir8  1  0.330369  0.663327  0.551142  1
  Ir  Ir9  1  0.832958  0.663327  0.551142  1
  Ir  Ir10  1  0.831651  0.163303  0.548708  1
  Ag  Ag11  1  0.333903  0.167806  0.553653  1
  Pt  Pt12  1  0.994685  0.995329  0.657893  1
  Pt  Pt13  1  0.500644  0.995329  0.657893  1
  Pt  Pt14  1  0.500090  0.500180  0.662544  1
  Pt  Pt15  1  0.998977  0.497955  0.650899  1
  O  O16  1  0.474747  0.449494  0.754498  1
  H  H17  1  0.568583  0.637165  0.771944  1
