# generated using pymatgen
data_HIr9Pt4Au3O
_symmetry_space_group_name_H-M   'P 1'
_cell_length_a   5.57232071
_cell_length_b   5.57232071
_cell_length_c   21.82467121
_cell_angle_alpha   90.00000000
_cell_angle_beta   90.00000000
_cell_angle_gamma   120.00000000
_symmetry_Int_Tables_number   1
_chemical_formula_structural   HIr9Pt4Au3O
_chemical_formula_sum   'Ir9 H1 Pt4 Au3 O1'
_cell_volume   586.88167398
_cell_formula_units_Z   1
loop_
 _symmetry_equiv_pos_site_id
 _symmetry_equiv_pos_as_xyz
  1  'x, y, z'
loop_
 _atom_site_type_symbol
 _atom_site_label
 _atom_site_symmetry_multiplicity
 _atom_site_fract_x
 _atom_site_fract_y
 _atom_site_fract_z
 _atom_site_occupancy
  Ir  Ir0  1  0.000000  0.000000  0.343648  1
  Ir  Ir1  1  0.500000  0.000000  0.343648  1
  Ir  Ir2  1  0.500000  0.500000  0.343648  1
  Au  Au3  1  0.000000  0.500000  0.343648  1
  Ir  Ir4  1  0.666667  0.333333  0.447883  1
  Ir  Ir5  1  0.166667  0.333333  0.447883  1
  Ir  Ir6  1  0.166667  0.833333  0.447883  1
  Au  Au7  1  0.666667  0.833333  0.447883  1
  Ir  Ir8  1  0.329121  0.659974  0.551389  1
  Ir  Ir9  1  0.830848  0.659969  0.551389  1
  Ir  Ir10  1  0.831508  0.163016  0.549053  1
  Au  Au11  1  0.332412  0.164824  0.553141  1
  Pt  Pt12  1  -0.009007  -0.010474  0.657997  1
  Pt  Pt13  1  0.498526  -0.010465  0.657999  1
  Pt  Pt14  1  0.496421  0.492864  0.663219  1
  Pt  Pt15  1  -0.003461  0.493091  0.651432  1
  O  O16  1  0.477401  0.455060  0.755179  1
  H  H17  1  0.572203  0.644176  0.771488  1
