# generated using pymatgen
data_Al3HIr9Pt4O
_symmetry_space_group_name_H-M   'P 1'
_cell_length_a   5.45864310
_cell_length_b   5.45864310
_cell_length_c   21.68544514
_cell_angle_alpha   90.00000000
_cell_angle_beta   90.00000000
_cell_angle_gamma   120.00000000
_symmetry_Int_Tables_number   1
_chemical_formula_structural   Al3HIr9Pt4O
_chemical_formula_sum   'Al3 Ir9 H1 Pt4 O1'
_cell_volume   559.58797459
_cell_formula_units_Z   1
loop_
 _symmetry_equiv_pos_site_id
 _symmetry_equiv_pos_as_xyz
  1  'x, y, z'
loop_
 _atom_site_type_symbol
 _atom_site_label
 _atom_site_symmetry_multiplicity
 _atom_site_fract_x
 _atom_site_fract_y
 _atom_site_fract_z
 _atom_site_occupancy
  Ir  Ir0  1  0.000000  0.000000  0.345854  1
  Ir  Ir1  1  0.500000  0.000000  0.345854  1
  Ir  Ir2  1  0.500000  0.500000  0.345854  1
  Al  Al3  1  0.000000  0.500000  0.345854  1
  Ir  Ir4  1  0.666667  0.333333  0.448618  1
  Ir  Ir5  1  0.166667  0.333333  0.448618  1
  Ir  Ir6  1  0.166667  0.833333  0.448618  1
  Al  Al7  1  0.666667  0.833333  0.448618  1
  Ir  Ir8  1  0.330693  0.657130  0.550091  1
  Ir  Ir9  1  0.826437  0.657130  0.550091  1
  Ir  Ir10  1  0.829269  0.158538  0.547310  1
  Al  Al11  1  0.330335  0.160671  0.550930  1
  Pt  Pt12  1  1.010785  0.016711  0.653205  1
  Pt  Pt13  1  0.505926  1.016711  0.653205  1
  Pt  Pt14  1  0.508561  0.517123  0.657960  1
  Pt  Pt15  1  0.007040  0.514080  0.655583  1
  O  O16  1  0.472647  0.445293  0.751269  1
  H  H17  1  0.565368  0.630737  0.771350  1
