# generated using pymatgen
data_Cr3HIr9Pt4O
_symmetry_space_group_name_H-M   'P 1'
_cell_length_a   5.40847875
_cell_length_b   5.40847875
_cell_length_c   21.62400661
_cell_angle_alpha   90.00000000
_cell_angle_beta   90.00000000
_cell_angle_gamma   120.00000000
_symmetry_Int_Tables_number   1
_chemical_formula_structural   Cr3HIr9Pt4O
_chemical_formula_sum   'Cr3 Ir9 H1 Pt4 O1'
_cell_volume   547.79372445
_cell_formula_units_Z   1
loop_
 _symmetry_equiv_pos_site_id
 _symmetry_equiv_pos_as_xyz
  1  'x, y, z'
loop_
 _atom_site_type_symbol
 _atom_site_label
 _atom_site_symmetry_multiplicity
 _atom_site_fract_x
 _atom_site_fract_y
 _atom_site_fract_z
 _atom_site_occupancy
  Ir  Ir0  1  0.000000  0.000000  0.346837  1
  Ir  Ir1  1  0.500000  0.000000  0.346837  1
  Ir  Ir2  1  0.500000  0.500000  0.346837  1
  Cr  Cr3  1  0.000000  0.500000  0.346837  1
  Ir  Ir4  1  0.666667  0.333333  0.448946  1
  Ir  Ir5  1  0.166667  0.333333  0.448946  1
  Ir  Ir6  1  0.166667  0.833333  0.448946  1
  Cr  Cr7  1  0.666667  0.833333  0.448946  1
  Ir  Ir8  1  0.337408  0.662459  0.547554  1
  Ir  Ir9  1  0.825051  0.662459  0.547554  1
  Ir  Ir10  1  0.830472  0.160944  0.546140  1
  Cr  Cr11  1  0.335079  0.170157  0.551448  1
  Pt  Pt12  1  0.005540  0.004946  0.652995  1
  Pt  Pt13  1  0.499405  0.004946  0.652995  1
  Pt  Pt14  1  0.502467  0.504933  0.657655  1
  Pt  Pt15  1  0.001048  0.502096  0.657392  1
  O  O16  1  0.486880  0.473760  0.752561  1
  H  H17  1  0.583870  0.667740  0.769399  1
