# generated using pymatgen
data_Co3HIr9Pt4O
_symmetry_space_group_name_H-M   'P 1'
_cell_length_a   5.35930942
_cell_length_b   5.35930942
_cell_length_c   21.56378673
_cell_angle_alpha   90.00000000
_cell_angle_beta   90.00000000
_cell_angle_gamma   120.00000000
_symmetry_Int_Tables_number   1
_chemical_formula_structural   Co3HIr9Pt4O
_chemical_formula_sum   'Co3 Ir9 H1 Pt4 O1'
_cell_volume   536.38092346
_cell_formula_units_Z   1
loop_
 _symmetry_equiv_pos_site_id
 _symmetry_equiv_pos_as_xyz
  1  'x, y, z'
loop_
 _atom_site_type_symbol
 _atom_site_label
 _atom_site_symmetry_multiplicity
 _atom_site_fract_x
 _atom_site_fract_y
 _atom_site_fract_z
 _atom_site_occupancy
  Ir  Ir0  1  0.000000  0.000000  0.347805  1
  Ir  Ir1  1  0.500000  0.000000  0.347805  1
  Ir  Ir2  1  0.500000  0.500000  0.347805  1
  Co  Co3  1  0.000000  0.500000  0.347805  1
  Ir  Ir4  1  0.666667  0.333333  0.449268  1
  Ir  Ir5  1  0.166667  0.333333  0.449268  1
  Ir  Ir6  1  0.166667  0.833333  0.449268  1
  Co  Co7  1  0.666667  0.833333  0.449268  1
  Ir  Ir8  1  0.335728  0.662964  0.549386  1
  Ir  Ir9  1  0.827236  0.662964  0.549386  1
  Ir  Ir10  1  0.830331  0.160662  0.547199  1
  Co  Co11  1  0.333198  0.166397  0.546572  1
  Pt  Pt12  1  1.005977  0.008198  0.654580  1
  Pt  Pt13  1  0.502220  0.008198  0.654580  1
  Pt  Pt14  1  0.503877  0.507754  0.661863  1
  Pt  Pt15  1  1.003266  0.506532  0.654405  1
  O  O16  1  0.480440  0.460881  0.755926  1
  H  H17  1  0.578395  0.656790  0.772764  1
