# generated using pymatgen
data_Cu3HIr9Pt4O
_symmetry_space_group_name_H-M   'P 1'
_cell_length_a   5.42058296
_cell_length_b   5.42058296
_cell_length_c   21.63883118
_cell_angle_alpha   90.00000000
_cell_angle_beta   90.00000000
_cell_angle_gamma   120.00000000
_symmetry_Int_Tables_number   1
_chemical_formula_structural   Cu3HIr9Pt4O
_chemical_formula_sum   'Cu3 Ir9 H1 Pt4 O1'
_cell_volume   550.62562808
_cell_formula_units_Z   1
loop_
 _symmetry_equiv_pos_site_id
 _symmetry_equiv_pos_as_xyz
  1  'x, y, z'
loop_
 _atom_site_type_symbol
 _atom_site_label
 _atom_site_symmetry_multiplicity
 _atom_site_fract_x
 _atom_site_fract_y
 _atom_site_fract_z
 _atom_site_occupancy
  Ir  Ir0  1  0.000000  0.000000  0.346599  1
  Ir  Ir1  1  0.500000  0.000000  0.346599  1
  Ir  Ir2  1  0.500000  0.500000  0.346599  1
  Cu  Cu3  1  -0.000000  0.500000  0.346599  1
  Ir  Ir4  1  0.666667  0.333333  0.448866  1
  Ir  Ir5  1  0.166667  0.333333  0.448866  1
  Ir  Ir6  1  0.166667  0.833333  0.448866  1
  Cu  Cu7  1  0.666667  0.833333  0.448866  1
  Ir  Ir8  1  0.333601  0.662115  0.550242  1
  Ir  Ir9  1  0.828514  0.662115  0.550242  1
  Ir  Ir10  1  0.828736  0.157473  0.547532  1
  Cu  Cu11  1  0.332182  0.164364  0.551764  1
  Pt  Pt12  1  0.001332  0.001068  0.656559  1
  Pt  Pt13  1  0.499736  0.001068  0.656559  1
  Pt  Pt14  1  0.500536  0.501072  0.662043  1
  Pt  Pt15  1  -0.000093  0.499815  0.652371  1
  O  O16  1  0.474537  0.449073  0.755300  1
  H  H17  1  0.570941  0.641882  0.772572  1
