# generated using pymatgen
data_Fe3HIr9Pt4O
_symmetry_space_group_name_H-M   'P 1'
_cell_length_a   5.35351603
_cell_length_b   5.35351603
_cell_length_c   21.55669130
_cell_angle_alpha   90.00000000
_cell_angle_beta   90.00000000
_cell_angle_gamma   120.00000000
_symmetry_Int_Tables_number   1
_chemical_formula_structural   Fe3HIr9Pt4O
_chemical_formula_sum   'Fe3 Ir9 H1 Pt4 O1'
_cell_volume   535.04578680
_cell_formula_units_Z   1
loop_
 _symmetry_equiv_pos_site_id
 _symmetry_equiv_pos_as_xyz
  1  'x, y, z'
loop_
 _atom_site_type_symbol
 _atom_site_label
 _atom_site_symmetry_multiplicity
 _atom_site_fract_x
 _atom_site_fract_y
 _atom_site_fract_z
 _atom_site_occupancy
  Ir  Ir0  1  0.000000  0.000000  0.347920  1
  Ir  Ir1  1  0.500000  0.000000  0.347920  1
  Ir  Ir2  1  0.500000  0.500000  0.347920  1
  Fe  Fe3  1  0.000000  0.500000  0.347920  1
  Ir  Ir4  1  0.666667  0.333333  0.449307  1
  Ir  Ir5  1  0.166667  0.333333  0.449307  1
  Ir  Ir6  1  0.166667  0.833333  0.449307  1
  Fe  Fe7  1  0.666667  0.833333  0.449307  1
  Ir  Ir8  1  0.336308  0.663074  0.548615  1
  Ir  Ir9  1  0.826765  0.663074  0.548615  1
  Ir  Ir10  1  0.830243  0.160485  0.546832  1
  Fe  Fe11  1  0.332902  0.165804  0.546656  1
  Pt  Pt12  1  0.004512  0.005209  0.654119  1
  Pt  Pt13  1  0.500697  0.005209  0.654119  1
  Pt  Pt14  1  0.502463  0.504927  0.660279  1
  Pt  Pt15  1  0.001613  0.503225  0.655650  1
  O  O16  1  0.481407  0.462814  0.754734  1
  H  H17  1  0.579484  0.658968  0.771550  1
