# generated using pymatgen
data_Ga3HIr9Pt4O
_symmetry_space_group_name_H-M   'P 1'
_cell_length_a   5.48648915
_cell_length_b   5.48648915
_cell_length_c   21.71954945
_cell_angle_alpha   90.00000000
_cell_angle_beta   90.00000000
_cell_angle_gamma   120.00000000
_symmetry_Int_Tables_number   1
_chemical_formula_structural   Ga3HIr9Pt4O
_chemical_formula_sum   'Ga3 Ir9 H1 Pt4 O1'
_cell_volume   566.20081971
_cell_formula_units_Z   1
loop_
 _symmetry_equiv_pos_site_id
 _symmetry_equiv_pos_as_xyz
  1  'x, y, z'
loop_
 _atom_site_type_symbol
 _atom_site_label
 _atom_site_symmetry_multiplicity
 _atom_site_fract_x
 _atom_site_fract_y
 _atom_site_fract_z
 _atom_site_occupancy
  Ir  Ir0  1  0.000000  0.000000  0.345311  1
  Ir  Ir1  1  0.500000  0.000000  0.345311  1
  Ir  Ir2  1  0.500000  0.500000  0.345311  1
  Ga  Ga3  1  0.000000  0.500000  0.345311  1
  Ir  Ir4  1  0.666667  0.333333  0.448437  1
  Ir  Ir5  1  0.166667  0.333333  0.448437  1
  Ir  Ir6  1  0.166667  0.833333  0.448437  1
  Ga  Ga7  1  0.666667  0.833333  0.448437  1
  Ir  Ir8  1  0.329985  0.656495  0.550578  1
  Ir  Ir9  1  0.826510  0.656495  0.550578  1
  Ir  Ir10  1  0.829158  0.158317  0.547357  1
  Ga  Ga11  1  0.330754  0.161507  0.550793  1
  Pt  Pt12  1  1.008152  0.013220  0.653982  1
  Pt  Pt13  1  0.505068  0.013220  0.653982  1
  Pt  Pt14  1  0.507281  0.514562  0.659109  1
  Pt  Pt15  1  1.005468  0.510936  0.654392  1
  O  O16  1  0.473664  0.447329  0.751927  1
  H  H17  1  0.567043  0.634085  0.770960  1
