# generated using pymatgen
data_Ge3HIr9Pt4O
_symmetry_space_group_name_H-M   'P 1'
_cell_length_a   5.49552364
_cell_length_b   5.49552364
_cell_length_c   21.73061439
_cell_angle_alpha   90.00000000
_cell_angle_beta   90.00000000
_cell_angle_gamma   120.00000000
_symmetry_Int_Tables_number   1
_chemical_formula_structural   Ge3HIr9Pt4O
_chemical_formula_sum   'Ge3 Ir9 H1 Pt4 O1'
_cell_volume   568.35645623
_cell_formula_units_Z   1
loop_
 _symmetry_equiv_pos_site_id
 _symmetry_equiv_pos_as_xyz
  1  'x, y, z'
loop_
 _atom_site_type_symbol
 _atom_site_label
 _atom_site_symmetry_multiplicity
 _atom_site_fract_x
 _atom_site_fract_y
 _atom_site_fract_z
 _atom_site_occupancy
  Ir  Ir0  1  0.000000  0.000000  0.345135  1
  Ir  Ir1  1  0.500000  0.000000  0.345135  1
  Ir  Ir2  1  0.500000  0.500000  0.345135  1
  Ge  Ge3  1  0.000000  0.500000  0.345135  1
  Ir  Ir4  1  0.666667  0.333333  0.448378  1
  Ir  Ir5  1  0.166667  0.333333  0.448378  1
  Ir  Ir6  1  0.166667  0.833333  0.448378  1
  Ge  Ge7  1  0.666667  0.833333  0.448378  1
  Ir  Ir8  1  0.324788  0.645441  0.550863  1
  Ir  Ir9  1  0.820652  0.645441  0.550863  1
  Ir  Ir10  1  0.823634  0.147269  0.546655  1
  Ge  Ge11  1  0.327492  0.154984  0.549585  1
  Pt  Pt12  1  1.003556  0.003734  0.653865  1
  Pt  Pt13  1  0.500179  0.003734  0.653865  1
  Pt  Pt14  1  0.503403  0.506806  0.660961  1
  Pt  Pt15  1  0.000260  0.500520  0.655256  1
  O  O16  1  0.470529  0.441057  0.753054  1
  H  H17  1  0.564559  0.629118  0.771342  1
