# generated using pymatgen
data_HIr12Pt4O
_symmetry_space_group_name_H-M   'P 1'
_cell_length_a   5.47692455
_cell_length_b   5.47692455
_cell_length_c   21.70783525
_cell_angle_alpha   90.00000000
_cell_angle_beta   90.00000000
_cell_angle_gamma   120.00000000
_symmetry_Int_Tables_number   1
_chemical_formula_structural   HIr12Pt4O
_chemical_formula_sum   'Ir12 H1 Pt4 O1'
_cell_volume   563.92411167
_cell_formula_units_Z   1
loop_
 _symmetry_equiv_pos_site_id
 _symmetry_equiv_pos_as_xyz
  1  'x, y, z'
loop_
 _atom_site_type_symbol
 _atom_site_label
 _atom_site_symmetry_multiplicity
 _atom_site_fract_x
 _atom_site_fract_y
 _atom_site_fract_z
 _atom_site_occupancy
  Ir  Ir0  1  0.000000  0.000000  0.345497  1
  Ir  Ir1  1  0.500000  0.000000  0.345497  1
  Ir  Ir2  1  0.500000  0.500000  0.345497  1
  Ir  Ir3  1  0.000000  0.500000  0.345497  1
  Ir  Ir4  1  0.666667  0.333333  0.448499  1
  Ir  Ir5  1  0.166667  0.333333  0.448499  1
  Ir  Ir6  1  0.166667  0.833333  0.448499  1
  Ir  Ir7  1  0.666667  0.833333  0.448499  1
  Ir  Ir8  1  0.333827  0.663688  0.549148  1
  Ir  Ir9  1  0.829861  0.663688  0.549148  1
  Ir  Ir10  1  0.832710  0.165420  0.547691  1
  Ir  Ir11  1  0.333409  0.166817  0.548766  1
  Pt  Pt12  1  -0.000860  -0.002248  0.654372  1
  Pt  Pt13  1  0.498612  -0.002248  0.654372  1
  Pt  Pt14  1  0.499533  0.499065  0.659646  1
  Pt  Pt15  1  -0.001247  0.497505  0.654725  1
  O  O16  1  0.483615  0.467230  0.753097  1
  H  H17  1  0.579937  0.659874  0.769322  1
