# generated using pymatgen
data_La3HIr9Pt4O
_symmetry_space_group_name_H-M   'P 1'
_cell_length_a   5.87411756
_cell_length_b   5.87411756
_cell_length_c   22.19429535
_cell_angle_alpha   90.00000000
_cell_angle_beta   90.00000000
_cell_angle_gamma   120.00000000
_symmetry_Int_Tables_number   1
_chemical_formula_structural   La3HIr9Pt4O
_chemical_formula_sum   'La3 Ir9 H1 Pt4 O1'
_cell_volume   663.21945951
_cell_formula_units_Z   1
loop_
 _symmetry_equiv_pos_site_id
 _symmetry_equiv_pos_as_xyz
  1  'x, y, z'
loop_
 _atom_site_type_symbol
 _atom_site_label
 _atom_site_symmetry_multiplicity
 _atom_site_fract_x
 _atom_site_fract_y
 _atom_site_fract_z
 _atom_site_occupancy
  Ir  Ir0  1  0.000000  0.000000  0.337925  1
  Ir  Ir1  1  0.500000  0.000000  0.337925  1
  Ir  Ir2  1  0.500000  0.500000  0.337925  1
  La  La3  1  -0.000000  0.500000  0.337925  1
  Ir  Ir4  1  0.666667  0.333333  0.445975  1
  Ir  Ir5  1  0.166667  0.333333  0.445975  1
  Ir  Ir6  1  0.166667  0.833333  0.445975  1
  La  La7  1  0.666667  0.833333  0.445975  1
  Ir  Ir8  1  0.312891  0.654711  0.554124  1
  Ir  Ir9  1  0.841821  0.654711  0.554124  1
  Ir  Ir10  1  0.843502  0.187003  0.550527  1
  La  La11  1  0.332601  0.165202  0.553400  1
  Pt  Pt12  1  -0.007293  0.010864  0.655798  1
  Pt  Pt13  1  0.518157  0.010864  0.655798  1
  Pt  Pt14  1  0.518170  0.536340  0.657763  1
  Pt  Pt15  1  0.009521  0.519043  0.653557  1
  O  O16  1  0.479325  0.458650  0.747100  1
  H  H17  1  0.564815  0.629630  0.767406  1
