# generated using pymatgen
data_Mo3HIr9Pt4O
_symmetry_space_group_name_H-M   'P 1'
_cell_length_a   5.49866987
_cell_length_b   5.49866987
_cell_length_c   21.73446773
_cell_angle_alpha   90.00000000
_cell_angle_beta   90.00000000
_cell_angle_gamma   120.00000000
_symmetry_Int_Tables_number   1
_chemical_formula_structural   Mo3HIr9Pt4O
_chemical_formula_sum   'Mo3 Ir9 H1 Pt4 O1'
_cell_volume   569.10831866
_cell_formula_units_Z   1
loop_
 _symmetry_equiv_pos_site_id
 _symmetry_equiv_pos_as_xyz
  1  'x, y, z'
loop_
 _atom_site_type_symbol
 _atom_site_label
 _atom_site_symmetry_multiplicity
 _atom_site_fract_x
 _atom_site_fract_y
 _atom_site_fract_z
 _atom_site_occupancy
  Ir  Ir0  1  0.000000  0.000000  0.345074  1
  Ir  Ir1  1  0.500000  0.000000  0.345074  1
  Ir  Ir2  1  0.500000  0.500000  0.345074  1
  Mo  Mo3  1  -0.000000  0.500000  0.345074  1
  Ir  Ir4  1  0.666667  0.333333  0.448358  1
  Ir  Ir5  1  0.166667  0.333333  0.448358  1
  Ir  Ir6  1  0.166667  0.833333  0.448358  1
  Mo  Mo7  1  0.666667  0.833333  0.448358  1
  Ir  Ir8  1  0.335731  0.661917  0.548438  1
  Ir  Ir9  1  0.826185  0.661917  0.548438  1
  Ir  Ir10  1  0.832107  0.164214  0.546979  1
  Mo  Mo11  1  0.334067  0.168135  0.555188  1
  Pt  Pt12  1  0.004404  0.004580  0.654754  1
  Pt  Pt13  1  0.500176  0.004580  0.654754  1
  Pt  Pt14  1  0.504141  0.508282  0.658420  1
  Pt  Pt15  1  0.000896  0.501791  0.659259  1
  O  O16  1  0.489486  0.478971  0.752669  1
  H  H17  1  0.584637  0.669274  0.769673  1
