# generated using pymatgen
data_Nb3HIr9Pt4O
_symmetry_space_group_name_H-M   'P 1'
_cell_length_a   5.54576694
_cell_length_b   5.54576694
_cell_length_c   21.79214962
_cell_angle_alpha   90.00000000
_cell_angle_beta   90.00000000
_cell_angle_gamma   120.00000000
_symmetry_Int_Tables_number   1
_chemical_formula_structural   Nb3HIr9Pt4O
_chemical_formula_sum   'Nb3 Ir9 H1 Pt4 O1'
_cell_volume   580.43545425
_cell_formula_units_Z   1
loop_
 _symmetry_equiv_pos_site_id
 _symmetry_equiv_pos_as_xyz
  1  'x, y, z'
loop_
 _atom_site_type_symbol
 _atom_site_label
 _atom_site_symmetry_multiplicity
 _atom_site_fract_x
 _atom_site_fract_y
 _atom_site_fract_z
 _atom_site_occupancy
  Ir  Ir0  1  0.000000  0.000000  0.344161  1
  Ir  Ir1  1  0.500000  0.000000  0.344161  1
  Ir  Ir2  1  0.500000  0.500000  0.344161  1
  Nb  Nb3  1  -0.000000  0.500000  0.344161  1
  Ir  Ir4  1  0.666667  0.333333  0.448054  1
  Ir  Ir5  1  0.166667  0.333333  0.448054  1
  Ir  Ir6  1  0.166667  0.833333  0.448054  1
  Nb  Nb7  1  0.666667  0.833333  0.448054  1
  Ir  Ir8  1  0.333092  0.659324  0.549773  1
  Ir  Ir9  1  0.826232  0.659324  0.549773  1
  Ir  Ir10  1  0.833174  0.166348  0.548368  1
  Nb  Nb11  1  0.330773  0.161545  0.553218  1
  Pt  Pt12  1  1.003639  0.004557  0.654702  1
  Pt  Pt13  1  0.500918  0.004557  0.654702  1
  Pt  Pt14  1  0.504234  0.508468  0.657439  1
  Pt  Pt15  1  1.001832  0.503665  0.658668  1
  O  O16  1  0.476069  0.452138  0.750687  1
  H  H17  1  0.568547  0.637095  0.769544  1
