# generated using pymatgen
data_HIr9Os3Pt4O
_symmetry_space_group_name_H-M   'P 1'
_cell_length_a   5.46750383
_cell_length_b   5.46750383
_cell_length_c   21.69629727
_cell_angle_alpha   90.00000000
_cell_angle_beta   90.00000000
_cell_angle_gamma   120.00000000
_symmetry_Int_Tables_number   1
_chemical_formula_structural   HIr9Os3Pt4O
_chemical_formula_sum   'Ir9 Os3 H1 Pt4 O1'
_cell_volume   561.68709486
_cell_formula_units_Z   1
loop_
 _symmetry_equiv_pos_site_id
 _symmetry_equiv_pos_as_xyz
  1  'x, y, z'
loop_
 _atom_site_type_symbol
 _atom_site_label
 _atom_site_symmetry_multiplicity
 _atom_site_fract_x
 _atom_site_fract_y
 _atom_site_fract_z
 _atom_site_occupancy
  Ir  Ir0  1  0.000000  0.000000  0.345681  1
  Ir  Ir1  1  0.500000  0.000000  0.345681  1
  Ir  Ir2  1  0.500000  0.500000  0.345681  1
  Os  Os3  1  -0.000000  0.500000  0.345681  1
  Ir  Ir4  1  0.666667  0.333333  0.448560  1
  Ir  Ir5  1  0.166667  0.333333  0.448560  1
  Ir  Ir6  1  0.166667  0.833333  0.448560  1
  Os  Os7  1  0.666667  0.833333  0.448560  1
  Ir  Ir8  1  0.334633  0.663124  0.548302  1
  Ir  Ir9  1  0.828491  0.663124  0.548302  1
  Ir  Ir10  1  0.832052  0.164103  0.547024  1
  Os  Os11  1  0.333704  0.167408  0.550683  1
  Pt  Pt12  1  -0.001624  -0.004547  0.654096  1
  Pt  Pt13  1  0.497076  -0.004547  0.654096  1
  Pt  Pt14  1  0.498480  0.496961  0.658998  1
  Pt  Pt15  1  -0.002776  0.494447  0.656439  1
  O  O16  1  0.485916  0.471832  0.752919  1
  H  H17  1  0.582294  0.664587  0.769175  1
