# generated using pymatgen
data_HIr9Pt4Pb3O
_symmetry_space_group_name_H-M   'P 1'
_cell_length_a   5.72601566
_cell_length_b   5.72601566
_cell_length_c   22.01290832
_cell_angle_alpha   90.00000000
_cell_angle_beta   90.00000000
_cell_angle_gamma   120.00000000
_symmetry_Int_Tables_number   1
_chemical_formula_structural   HIr9Pt4Pb3O
_chemical_formula_sum   'Ir9 H1 Pt4 Pb3 O1'
_cell_volume   625.04763975
_cell_formula_units_Z   1
loop_
 _symmetry_equiv_pos_site_id
 _symmetry_equiv_pos_as_xyz
  1  'x, y, z'
loop_
 _atom_site_type_symbol
 _atom_site_label
 _atom_site_symmetry_multiplicity
 _atom_site_fract_x
 _atom_site_fract_y
 _atom_site_fract_z
 _atom_site_occupancy
  Ir  Ir0  1  0.000000  0.000000  0.340709  1
  Ir  Ir1  1  0.500000  0.000000  0.340709  1
  Ir  Ir2  1  0.500000  0.500000  0.340709  1
  Pb  Pb3  1  -0.000000  0.500000  0.340709  1
  Ir  Ir4  1  0.666667  0.333333  0.446903  1
  Ir  Ir5  1  0.166667  0.333333  0.446903  1
  Ir  Ir6  1  0.166667  0.833333  0.446903  1
  Pb  Pb7  1  0.666667  0.833333  0.446903  1
  Ir  Ir8  1  0.320841  0.657604  0.551713  1
  Ir  Ir9  1  0.836763  0.657604  0.551713  1
  Ir  Ir10  1  0.833730  0.167461  0.549139  1
  Pb  Pb11  1  0.333996  0.167992  0.552470  1
  Pt  Pt12  1  0.995243  0.000657  0.655152  1
  Pt  Pt13  1  0.505413  0.000657  0.655152  1
  Pt  Pt14  1  0.506274  0.512547  0.659175  1
  Pt  Pt15  1  0.001400  0.502800  0.652105  1
  O  O16  1  0.474111  0.448223  0.749395  1
  H  H17  1  0.563598  0.627197  0.768251  1
