# generated using pymatgen
data_HIr9Pd3Pt4O
_symmetry_space_group_name_H-M   'P 1'
_cell_length_a   5.49525151
_cell_length_b   5.49525151
_cell_length_c   21.73028111
_cell_angle_alpha   90.00000000
_cell_angle_beta   90.00000000
_cell_angle_gamma   120.00000000
_symmetry_Int_Tables_number   1
_chemical_formula_structural   HIr9Pd3Pt4O
_chemical_formula_sum   'Ir9 Pd3 H1 Pt4 O1'
_cell_volume   568.29145420
_cell_formula_units_Z   1
loop_
 _symmetry_equiv_pos_site_id
 _symmetry_equiv_pos_as_xyz
  1  'x, y, z'
loop_
 _atom_site_type_symbol
 _atom_site_label
 _atom_site_symmetry_multiplicity
 _atom_site_fract_x
 _atom_site_fract_y
 _atom_site_fract_z
 _atom_site_occupancy
  Ir  Ir0  1  0.000000  0.000000  0.345140  1
  Ir  Ir1  1  0.500000  0.000000  0.345140  1
  Ir  Ir2  1  0.500000  0.500000  0.345140  1
  Pd  Pd3  1  -0.000000  0.500000  0.345140  1
  Ir  Ir4  1  0.666667  0.333333  0.448380  1
  Ir  Ir5  1  0.166667  0.333333  0.448380  1
  Ir  Ir6  1  0.166667  0.833333  0.448380  1
  Pd  Pd7  1  0.666667  0.833333  0.448380  1
  Ir  Ir8  1  0.331945  0.662387  0.550720  1
  Ir  Ir9  1  0.830442  0.662387  0.550720  1
  Ir  Ir10  1  0.831797  0.163593  0.548618  1
  Pd  Pd11  1  0.333080  0.166159  0.551307  1
  Pt  Pt12  1  -0.003233  -0.004260  0.657034  1
  Pt  Pt13  1  0.498973  -0.004260  0.657034  1
  Pt  Pt14  1  0.498538  0.497076  0.663163  1
  Pt  Pt15  1  -0.001486  0.497027  0.652460  1
  O  O16  1  0.480776  0.461551  0.755935  1
  H  H17  1  0.576929  0.653858  0.771956  1
