# generated using pymatgen
data_Re3HIr9Pt4O
_symmetry_space_group_name_H-M   'P 1'
_cell_length_a   5.47971363
_cell_length_b   5.47971363
_cell_length_c   21.71125116
_cell_angle_alpha   90.00000000
_cell_angle_beta   90.00000000
_cell_angle_gamma   120.00000000
_symmetry_Int_Tables_number   1
_chemical_formula_structural   Re3HIr9Pt4O
_chemical_formula_sum   'Re3 Ir9 H1 Pt4 O1'
_cell_volume   564.58743498
_cell_formula_units_Z   1
loop_
 _symmetry_equiv_pos_site_id
 _symmetry_equiv_pos_as_xyz
  1  'x, y, z'
loop_
 _atom_site_type_symbol
 _atom_site_label
 _atom_site_symmetry_multiplicity
 _atom_site_fract_x
 _atom_site_fract_y
 _atom_site_fract_z
 _atom_site_occupancy
  Ir  Ir0  1  0.000000  0.000000  0.345443  1
  Ir  Ir1  1  0.500000  0.000000  0.345443  1
  Ir  Ir2  1  0.500000  0.500000  0.345443  1
  Re  Re3  1  0.000000  0.500000  0.345443  1
  Ir  Ir4  1  0.666667  0.333333  0.448481  1
  Ir  Ir5  1  0.166667  0.333333  0.448481  1
  Ir  Ir6  1  0.166667  0.833333  0.448481  1
  Re  Re7  1  0.666667  0.833333  0.448481  1
  Ir  Ir8  1  0.335944  0.662345  0.547964  1
  Ir  Ir9  1  0.826401  0.662345  0.547964  1
  Ir  Ir10  1  0.831261  0.162521  0.546638  1
  Re  Re11  1  0.333260  0.166520  0.554522  1
  Pt  Pt12  1  -0.000232  -0.004035  0.654398  1
  Pt  Pt13  1  0.496198  -0.004035  0.654398  1
  Pt  Pt14  1  0.499170  0.498340  0.659130  1
  Pt  Pt15  1  -0.003047  0.493905  0.658719  1
  O  O16  1  0.488062  0.476123  0.753379  1
  H  H17  1  0.583835  0.667670  0.770069  1
