# generated using pymatgen
data_HIr9Pt4Rh3O
_symmetry_space_group_name_H-M   'P 1'
_cell_length_a   5.45973250
_cell_length_b   5.45973250
_cell_length_c   21.68677937
_cell_angle_alpha   90.00000000
_cell_angle_beta   90.00000000
_cell_angle_gamma   120.00000000
_symmetry_Int_Tables_number   1
_chemical_formula_structural   HIr9Pt4Rh3O
_chemical_formula_sum   'Ir9 H1 Rh3 Pt4 O1'
_cell_volume   559.84579722
_cell_formula_units_Z   1
loop_
 _symmetry_equiv_pos_site_id
 _symmetry_equiv_pos_as_xyz
  1  'x, y, z'
loop_
 _atom_site_type_symbol
 _atom_site_label
 _atom_site_symmetry_multiplicity
 _atom_site_fract_x
 _atom_site_fract_y
 _atom_site_fract_z
 _atom_site_occupancy
  Ir  Ir0  1  0.000000  0.000000  0.345833  1
  Ir  Ir1  1  0.500000  0.000000  0.345833  1
  Ir  Ir2  1  0.500000  0.500000  0.345833  1
  Rh  Rh3  1  0.000000  0.500000  0.345833  1
  Ir  Ir4  1  0.666667  0.333333  0.448611  1
  Ir  Ir5  1  0.166667  0.333333  0.448611  1
  Ir  Ir6  1  0.166667  0.833333  0.448611  1
  Rh  Rh7  1  0.666667  0.833333  0.448611  1
  Ir  Ir8  1  0.334094  0.663752  0.549396  1
  Ir  Ir9  1  0.829659  0.663752  0.549396  1
  Ir  Ir10  1  0.832604  0.165208  0.547731  1
  Rh  Rh11  1  0.333137  0.166274  0.548581  1
  Pt  Pt12  1  -0.000024  0.000048  0.654871  1
  Pt  Pt13  1  0.500072  0.000048  0.654871  1
  Pt  Pt14  1  0.500589  0.501177  0.660508  1
  Pt  Pt15  1  0.000220  0.500441  0.654051  1
  O  O16  1  0.481613  0.463227  0.753848  1
  H  H17  1  0.578084  0.656167  0.770267  1
