# generated using pymatgen
data_HIr9Ru3Pt4O
_symmetry_space_group_name_H-M   'P 1'
_cell_length_a   5.45060528
_cell_length_b   5.45060528
_cell_length_c   21.67560086
_cell_angle_alpha   90.00000000
_cell_angle_beta   90.00000000
_cell_angle_gamma   120.00000000
_symmetry_Int_Tables_number   1
_chemical_formula_structural   HIr9Ru3Pt4O
_chemical_formula_sum   'Ir9 Ru3 H1 Pt4 O1'
_cell_volume   557.68792542
_cell_formula_units_Z   1
loop_
 _symmetry_equiv_pos_site_id
 _symmetry_equiv_pos_as_xyz
  1  'x, y, z'
loop_
 _atom_site_type_symbol
 _atom_site_label
 _atom_site_symmetry_multiplicity
 _atom_site_fract_x
 _atom_site_fract_y
 _atom_site_fract_z
 _atom_site_occupancy
  Ir  Ir0  1  0.000000  0.000000  0.346011  1
  Ir  Ir1  1  0.500000  1.000000  0.346011  1
  Ir  Ir2  1  0.500000  0.500000  0.346011  1
  Ru  Ru3  1  -0.000000  0.500000  0.346011  1
  Ir  Ir4  1  0.666667  0.333333  0.448670  1
  Ir  Ir5  1  0.166667  0.333333  0.448670  1
  Ir  Ir6  1  0.166667  0.833333  0.448670  1
  Ru  Ru7  1  0.666667  0.833333  0.448670  1
  Ir  Ir8  1  0.335043  0.663762  0.548616  1
  Ir  Ir9  1  0.828719  0.663762  0.548616  1
  Ir  Ir10  1  0.832273  0.164546  0.547262  1
  Ru  Ru11  1  0.333504  0.167007  0.549482  1
  Pt  Pt12  1  1.000518  0.999937  0.654470  1
  Pt  Pt13  1  0.499419  0.999937  0.654470  1
  Pt  Pt14  1  0.500517  0.501034  0.659354  1
  Pt  Pt15  1  0.999516  0.499031  0.655606  1
  O  O16  1  0.485561  0.471121  0.753219  1
  H  H17  1  0.582228  0.664456  0.769533  1
