# generated using pymatgen
data_Sb3HIr9Pt4O
_symmetry_space_group_name_H-M   'P 1'
_cell_length_a   5.63802563
_cell_length_b   5.63802563
_cell_length_c   21.90514298
_cell_angle_alpha   90.00000000
_cell_angle_beta   90.00000000
_cell_angle_gamma   120.00000000
_symmetry_Int_Tables_number   1
_chemical_formula_structural   Sb3HIr9Pt4O
_chemical_formula_sum   'Sb3 Ir9 H1 Pt4 O1'
_cell_volume   603.01874988
_cell_formula_units_Z   1
loop_
 _symmetry_equiv_pos_site_id
 _symmetry_equiv_pos_as_xyz
  1  'x, y, z'
loop_
 _atom_site_type_symbol
 _atom_site_label
 _atom_site_symmetry_multiplicity
 _atom_site_fract_x
 _atom_site_fract_y
 _atom_site_fract_z
 _atom_site_occupancy
  Ir  Ir0  1  0.000000  0.000000  0.342385  1
  Ir  Ir1  1  0.500000  0.000000  0.342385  1
  Ir  Ir2  1  0.500000  0.500000  0.342385  1
  Sb  Sb3  1  0.000000  0.500000  0.342385  1
  Ir  Ir4  1  0.666667  0.333333  0.447462  1
  Ir  Ir5  1  0.166667  0.333333  0.447462  1
  Ir  Ir6  1  0.166667  0.833333  0.447462  1
  Sb  Sb7  1  0.666667  0.833333  0.447462  1
  Ir  Ir8  1  0.327518  0.655263  0.550819  1
  Ir  Ir9  1  0.827745  0.655263  0.550819  1
  Ir  Ir10  1  0.832515  0.165030  0.548424  1
  Sb  Sb11  1  0.330240  0.160480  0.553948  1
  Pt  Pt12  1  -0.000413  0.003667  0.655737  1
  Pt  Pt13  1  0.504079  1.003667  0.655737  1
  Pt  Pt14  1  0.505973  0.511946  0.660675  1
  Pt  Pt15  1  0.002609  0.505218  0.655342  1
  O  O16  1  0.472369  0.444738  0.751500  1
  H  H17  1  0.563379  0.626758  0.770354  1
