# generated using pymatgen
data_Sn3HIr9Pt4O
_symmetry_space_group_name_H-M   'P 1'
_cell_length_a   5.63679350
_cell_length_b   5.63679350
_cell_length_c   21.90363393
_cell_angle_alpha   90.00000000
_cell_angle_beta   90.00000000
_cell_angle_gamma   120.00000000
_symmetry_Int_Tables_number   1
_chemical_formula_structural   Sn3HIr9Pt4O
_chemical_formula_sum   'Sn3 Ir9 H1 Pt4 O1'
_cell_volume   602.71368828
_cell_formula_units_Z   1
loop_
 _symmetry_equiv_pos_site_id
 _symmetry_equiv_pos_as_xyz
  1  'x, y, z'
loop_
 _atom_site_type_symbol
 _atom_site_label
 _atom_site_symmetry_multiplicity
 _atom_site_fract_x
 _atom_site_fract_y
 _atom_site_fract_z
 _atom_site_occupancy
  Ir  Ir0  1  0.000000  0.000000  0.342409  1
  Ir  Ir1  1  0.500000  1.000000  0.342409  1
  Ir  Ir2  1  0.500000  0.500000  0.342409  1
  Sn  Sn3  1  0.000000  0.500000  0.342409  1
  Ir  Ir4  1  0.666667  0.333333  0.447470  1
  Ir  Ir5  1  0.166667  0.333333  0.447470  1
  Ir  Ir6  1  0.166667  0.833333  0.447470  1
  Sn  Sn7  1  0.666667  0.833333  0.447470  1
  Ir  Ir8  1  0.325396  0.656706  0.551384  1
  Ir  Ir9  1  0.831310  0.656706  0.551384  1
  Ir  Ir10  1  0.832073  0.164146  0.549172  1
  Sn  Sn11  1  0.331791  0.163583  0.551894  1
  Pt  Pt12  1  0.001361  1.005842  0.654893  1
  Pt  Pt13  1  0.504481  1.005842  0.654893  1
  Pt  Pt14  1  0.505841  0.511681  0.658855  1
  Pt  Pt15  1  0.003050  0.506100  0.653969  1
  O  O16  1  0.473508  0.447016  0.750117  1
  H  H17  1  0.564376  0.628752  0.769066  1
