# generated using pymatgen
data_Sc3HIr9Pt4O
_symmetry_space_group_name_H-M   'P 1'
_cell_length_a   5.57926468
_cell_length_b   5.57926468
_cell_length_c   21.83317580
_cell_angle_alpha   90.00000000
_cell_angle_beta   90.00000000
_cell_angle_gamma   120.00000000
_symmetry_Int_Tables_number   1
_chemical_formula_structural   Sc3HIr9Pt4O
_chemical_formula_sum   'Sc3 Ir9 H1 Pt4 O1'
_cell_volume   588.57454082
_cell_formula_units_Z   1
loop_
 _symmetry_equiv_pos_site_id
 _symmetry_equiv_pos_as_xyz
  1  'x, y, z'
loop_
 _atom_site_type_symbol
 _atom_site_label
 _atom_site_symmetry_multiplicity
 _atom_site_fract_x
 _atom_site_fract_y
 _atom_site_fract_z
 _atom_site_occupancy
  Ir  Ir0  1  0.000000  0.000000  0.343514  1
  Ir  Ir1  1  0.500000  0.000000  0.343514  1
  Ir  Ir2  1  0.500000  0.500000  0.343514  1
  Sc  Sc3  1  0.000000  0.500000  0.343514  1
  Ir  Ir4  1  0.666667  0.333333  0.447838  1
  Ir  Ir5  1  0.166667  0.333333  0.447838  1
  Ir  Ir6  1  0.166667  0.833333  0.447838  1
  Sc  Sc7  1  0.666667  0.833333  0.447838  1
  Ir  Ir8  1  0.325438  0.657347  0.551373  1
  Ir  Ir9  1  0.831908  0.657347  0.551373  1
  Ir  Ir10  1  0.831677  0.163355  0.548881  1
  Sc  Sc11  1  0.331258  0.162516  0.552620  1
  Pt  Pt12  1  0.007131  0.014133  0.655027  1
  Pt  Pt13  1  0.507001  1.014133  0.655027  1
  Pt  Pt14  1  0.510368  0.520737  0.657506  1
  Pt  Pt15  1  1.006901  0.513802  0.655793  1
  O  O16  1  0.473177  0.446354  0.749809  1
  H  H17  1  0.563637  0.627274  0.770032  1
