# generated using pymatgen
data_V3HIr9Pt4O
_symmetry_space_group_name_H-M   'P 1'
_cell_length_a   5.42466022
_cell_length_b   5.42466022
_cell_length_c   21.64382478
_cell_angle_alpha   90.00000000
_cell_angle_beta   90.00000000
_cell_angle_gamma   120.00000000
_symmetry_Int_Tables_number   1
_chemical_formula_structural   V3HIr9Pt4O
_chemical_formula_sum   'V3 Ir9 H1 Pt4 O1'
_cell_volume   551.58153949
_cell_formula_units_Z   1
loop_
 _symmetry_equiv_pos_site_id
 _symmetry_equiv_pos_as_xyz
  1  'x, y, z'
loop_
 _atom_site_type_symbol
 _atom_site_label
 _atom_site_symmetry_multiplicity
 _atom_site_fract_x
 _atom_site_fract_y
 _atom_site_fract_z
 _atom_site_occupancy
  Ir  Ir0  1  0.000000  0.000000  0.346519  1
  Ir  Ir1  1  0.500000  0.000000  0.346519  1
  Ir  Ir2  1  0.500000  0.500000  0.346519  1
  V  V3  1  0.000000  0.500000  0.346519  1
  Ir  Ir4  1  0.666667  0.333333  0.448840  1
  Ir  Ir5  1  0.166667  0.333333  0.448840  1
  Ir  Ir6  1  0.166667  0.833333  0.448840  1
  V  V7  1  0.666667  0.833333  0.448840  1
  Ir  Ir8  1  0.336068  0.661770  0.548679  1
  Ir  Ir9  1  0.825702  0.661770  0.548679  1
  Ir  Ir10  1  0.831177  0.162354  0.547130  1
  V  V11  1  0.332140  0.164280  0.552136  1
  Pt  Pt12  1  1.005955  0.006449  0.653778  1
  Pt  Pt13  1  0.500495  1.006449  0.653778  1
  Pt  Pt14  1  0.503502  0.507005  0.657626  1
  Pt  Pt15  1  1.001671  0.503342  0.658985  1
  O  O16  1  0.478177  0.456353  0.752172  1
  H  H17  1  0.573564  0.647129  0.770329  1
