# generated using pymatgen
data_Y3HIr9Pt4O
_symmetry_space_group_name_H-M   'P 1'
_cell_length_a   5.73304138
_cell_length_b   5.73304138
_cell_length_c   22.02151303
_cell_angle_alpha   90.00000000
_cell_angle_beta   90.00000000
_cell_angle_gamma   120.00000000
_symmetry_Int_Tables_number   1
_chemical_formula_structural   Y3HIr9Pt4O
_chemical_formula_sum   'Y3 Ir9 H1 Pt4 O1'
_cell_volume   626.82735224
_cell_formula_units_Z   1
loop_
 _symmetry_equiv_pos_site_id
 _symmetry_equiv_pos_as_xyz
  1  'x, y, z'
loop_
 _atom_site_type_symbol
 _atom_site_label
 _atom_site_symmetry_multiplicity
 _atom_site_fract_x
 _atom_site_fract_y
 _atom_site_fract_z
 _atom_site_occupancy
  Ir  Ir0  1  0.000000  0.000000  0.340576  1
  Ir  Ir1  1  0.500000  0.000000  0.340576  1
  Ir  Ir2  1  0.500000  0.500000  0.340576  1
  Y  Y3  1  0.000000  0.500000  0.340576  1
  Ir  Ir4  1  0.666667  0.333333  0.446859  1
  Ir  Ir5  1  0.166667  0.333333  0.446859  1
  Ir  Ir6  1  0.166667  0.833333  0.446859  1
  Y  Y7  1  0.666667  0.833333  0.446859  1
  Ir  Ir8  1  0.317850  0.655699  0.552900  1
  Ir  Ir9  1  0.837849  0.655699  0.552900  1
  Ir  Ir10  1  0.836390  0.172780  0.550179  1
  Y  Y11  1  0.332384  0.164768  0.552877  1
  Pt  Pt12  1  0.001696  0.013012  0.655752  1
  Pt  Pt13  1  0.511315  1.013012  0.655752  1
  Pt  Pt14  1  0.513991  0.527981  0.657357  1
  Pt  Pt15  1  0.008156  0.516312  0.654690  1
  O  O16  1  0.475201  0.450402  0.747987  1
  H  H17  1  0.562752  0.625503  0.768494  1
