# generated using pymatgen
data_Ni9Ag3HPt4O
_symmetry_space_group_name_H-M   'P 1'
_cell_length_a   5.21927206
_cell_length_b   5.21927206
_cell_length_c   21.39227668
_cell_angle_alpha   90.00000000
_cell_angle_beta   90.00000000
_cell_angle_gamma   120.00000000
_symmetry_Int_Tables_number   1
_chemical_formula_structural   Ni9Ag3HPt4O
_chemical_formula_sum   'Ni9 Ag3 H1 Pt4 O1'
_cell_volume   504.67002347
_cell_formula_units_Z   1
loop_
 _symmetry_equiv_pos_site_id
 _symmetry_equiv_pos_as_xyz
  1  'x, y, z'
loop_
 _atom_site_type_symbol
 _atom_site_label
 _atom_site_symmetry_multiplicity
 _atom_site_fract_x
 _atom_site_fract_y
 _atom_site_fract_z
 _atom_site_occupancy
  Ni  Ni0  1  0.000000  0.000000  0.350594  1
  Ni  Ni1  1  0.500000  1.000000  0.350594  1
  Ni  Ni2  1  0.500000  0.500000  0.350594  1
  Ag  Ag3  1  0.000000  0.500000  0.350594  1
  Ni  Ni4  1  0.666667  0.333333  0.450198  1
  Ni  Ni5  1  0.166667  0.333333  0.450198  1
  Ni  Ni6  1  0.166667  0.833333  0.450198  1
  Ag  Ag7  1  0.666667  0.833333  0.450198  1
  Ni  Ni8  1  0.331794  0.667774  0.552340  1
  Ni  Ni9  1  0.835980  0.667774  0.552340  1
  Ni  Ni10  1  0.835992  0.171984  0.549357  1
  Ag  Ag11  1  0.337975  0.175949  0.550237  1
  Pt  Pt12  1  0.990539  0.985294  0.658103  1
  Pt  Pt13  1  0.494755  0.985294  0.658103  1
  Pt  Pt14  1  0.493415  0.486831  0.671717  1
  Pt  Pt15  1  0.993488  0.486975  0.651602  1
  O  O16  1  0.476738  0.453475  0.765872  1
  H  H17  1  0.578728  0.657457  0.781341  1
