# generated using pymatgen
data_Ni9HPt4Au3O
_symmetry_space_group_name_H-M   'P 1'
_cell_length_a   5.23356966
_cell_length_b   5.23356966
_cell_length_c   21.40978760
_cell_angle_alpha   90.00000000
_cell_angle_beta   90.00000000
_cell_angle_gamma   120.00000000
_symmetry_Int_Tables_number   1
_chemical_formula_structural   Ni9HPt4Au3O
_chemical_formula_sum   'Ni9 H1 Pt4 Au3 O1'
_cell_volume   507.85415376
_cell_formula_units_Z   1
loop_
 _symmetry_equiv_pos_site_id
 _symmetry_equiv_pos_as_xyz
  1  'x, y, z'
loop_
 _atom_site_type_symbol
 _atom_site_label
 _atom_site_symmetry_multiplicity
 _atom_site_fract_x
 _atom_site_fract_y
 _atom_site_fract_z
 _atom_site_occupancy
  Ni  Ni0  1  0.000000  0.000000  0.350307  1
  Ni  Ni1  1  0.500000  0.000000  0.350307  1
  Ni  Ni2  1  0.500000  0.500000  0.350307  1
  Au  Au3  1  0.000000  0.500000  0.350307  1
  Ni  Ni4  1  0.666667  0.333333  0.450102  1
  Ni  Ni5  1  0.166667  0.333333  0.450102  1
  Ni  Ni6  1  0.166667  0.833333  0.450102  1
  Au  Au7  1  0.666667  0.833333  0.450102  1
  Ni  Ni8  1  0.330650  0.666278  0.552313  1
  Ni  Ni9  1  0.835628  0.666278  0.552313  1
  Ni  Ni10  1  0.834688  0.169376  0.549603  1
  Au  Au11  1  0.337545  0.175091  0.550046  1
  Pt  Pt12  1  -0.014023  -0.023776  0.658274  1
  Pt  Pt13  1  0.490248  -0.023776  0.658274  1
  Pt  Pt14  1  0.488488  0.476976  0.672122  1
  Pt  Pt15  1  -0.011145  0.477709  0.652382  1
  O  O16  1  0.481488  0.462976  0.766249  1
  H  H17  1  0.584211  0.668423  0.780487  1
