# generated using pymatgen
data_Cr3Ni9HPt4O
_symmetry_space_group_name_H-M   'P 1'
_cell_length_a   5.02404281
_cell_length_b   5.02404281
_cell_length_c   21.15317066
_cell_angle_alpha   90.00000000
_cell_angle_beta   90.00000000
_cell_angle_gamma   120.00000000
_symmetry_Int_Tables_number   1
_chemical_formula_structural   Cr3Ni9HPt4O
_chemical_formula_sum   'Cr3 Ni9 H1 Pt4 O1'
_cell_volume   462.39461441
_cell_formula_units_Z   1
loop_
 _symmetry_equiv_pos_site_id
 _symmetry_equiv_pos_as_xyz
  1  'x, y, z'
loop_
 _atom_site_type_symbol
 _atom_site_label
 _atom_site_symmetry_multiplicity
 _atom_site_fract_x
 _atom_site_fract_y
 _atom_site_fract_z
 _atom_site_occupancy
  Ni  Ni0  1  0.000000  0.000000  0.354557  1
  Ni  Ni1  1  0.500000  0.000000  0.354557  1
  Ni  Ni2  1  0.500000  0.500000  0.354557  1
  Cr  Cr3  1  0.000000  0.500000  0.354557  1
  Ni  Ni4  1  0.666667  0.333333  0.451519  1
  Ni  Ni5  1  0.166667  0.333333  0.451519  1
  Ni  Ni6  1  0.166667  0.833333  0.451519  1
  Cr  Cr7  1  0.666667  0.833333  0.451519  1
  Ni  Ni8  1  0.333293  0.662398  0.547250  1
  Ni  Ni9  1  0.829104  0.662398  0.547250  1
  Ni  Ni10  1  0.833260  0.166521  0.544102  1
  Cr  Cr11  1  0.336803  0.173606  0.552144  1
  Pt  Pt12  1  1.003101  0.006371  0.649677  1
  Pt  Pt13  1  0.503270  0.006371  0.649677  1
  Pt  Pt14  1  0.503127  0.506254  0.664063  1
  Pt  Pt15  1  1.002476  0.504952  0.677110  1
  O  O16  1  0.498560  0.497119  0.763519  1
  H  H17  1  0.604948  0.709896  0.778497  1
