# generated using pymatgen
data_Cu3Ni9HPt4O
_symmetry_space_group_name_H-M   'P 1'
_cell_length_a   5.01131355
_cell_length_b   5.01131355
_cell_length_c   21.13758056
_cell_angle_alpha   90.00000000
_cell_angle_beta   90.00000000
_cell_angle_gamma   120.00000000
_symmetry_Int_Tables_number   1
_chemical_formula_structural   Cu3Ni9HPt4O
_chemical_formula_sum   'Cu3 Ni9 H1 Pt4 O1'
_cell_volume   459.71540822
_cell_formula_units_Z   1
loop_
 _symmetry_equiv_pos_site_id
 _symmetry_equiv_pos_as_xyz
  1  'x, y, z'
loop_
 _atom_site_type_symbol
 _atom_site_label
 _atom_site_symmetry_multiplicity
 _atom_site_fract_x
 _atom_site_fract_y
 _atom_site_fract_z
 _atom_site_occupancy
  Ni  Ni0  1  0.000000  0.000000  0.354818  1
  Ni  Ni1  1  0.500000  0.000000  0.354818  1
  Ni  Ni2  1  0.500000  0.500000  0.354818  1
  Cu  Cu3  1  -0.000000  0.500000  0.354818  1
  Ni  Ni4  1  0.666667  0.333333  0.451606  1
  Ni  Ni5  1  0.166667  0.333333  0.451606  1
  Ni  Ni6  1  0.166667  0.833333  0.451606  1
  Cu  Cu7  1  0.666667  0.833333  0.451606  1
  Ni  Ni8  1  0.337651  0.670945  0.548032  1
  Ni  Ni9  1  0.833294  0.670945  0.548032  1
  Ni  Ni10  1  0.830024  0.160047  0.547589  1
  Cu  Cu11  1  0.337506  0.175013  0.556289  1
  Pt  Pt12  1  0.990770  -0.016279  0.664030  1
  Pt  Pt13  1  0.492951  -0.016279  0.664030  1
  Pt  Pt14  1  0.479281  0.458562  0.714682  1
  Pt  Pt15  1  0.994086  0.488173  0.645119  1
  O  O16  1  0.582604  0.665209  0.796725  1
  H  H17  1  0.695156  0.890311  0.792520  1
