# generated using pymatgen
data_Fe3Ni9HPt4O
_symmetry_space_group_name_H-M   'P 1'
_cell_length_a   4.94566846
_cell_length_b   4.94566846
_cell_length_c   21.05718208
_cell_angle_alpha   90.00000000
_cell_angle_beta   90.00000000
_cell_angle_gamma   120.00000000
_symmetry_Int_Tables_number   1
_chemical_formula_structural   Fe3Ni9HPt4O
_chemical_formula_sum   'Fe3 Ni9 H1 Pt4 O1'
_cell_volume   446.04726657
_cell_formula_units_Z   1
loop_
 _symmetry_equiv_pos_site_id
 _symmetry_equiv_pos_as_xyz
  1  'x, y, z'
loop_
 _atom_site_type_symbol
 _atom_site_label
 _atom_site_symmetry_multiplicity
 _atom_site_fract_x
 _atom_site_fract_y
 _atom_site_fract_z
 _atom_site_occupancy
  Ni  Ni0  1  0.000000  0.000000  0.356173  1
  Ni  Ni1  1  0.500000  0.000000  0.356173  1
  Ni  Ni2  1  0.500000  0.500000  0.356173  1
  Fe  Fe3  1  -0.000000  0.500000  0.356173  1
  Ni  Ni4  1  0.666667  0.333333  0.452058  1
  Ni  Ni5  1  0.166667  0.333333  0.452058  1
  Ni  Ni6  1  0.166667  0.833333  0.452058  1
  Fe  Fe7  1  0.666667  0.833333  0.452058  1
  Ni  Ni8  1  0.331798  0.664206  0.551940  1
  Ni  Ni9  1  0.832408  0.664206  0.551940  1
  Ni  Ni10  1  0.833613  0.167226  0.547758  1
  Fe  Fe11  1  0.336252  0.172504  0.549912  1
  Pt  Pt12  1  0.016023  0.033266  0.653342  1
  Pt  Pt13  1  0.517243  0.033266  0.653342  1
  Pt  Pt14  1  0.488706  0.477413  0.726442  1
  Pt  Pt15  1  0.016454  0.532909  0.688839  1
  O  O16  1  0.594589  0.689179  0.808351  1
  H  H17  1  0.708244  0.916487  0.802662  1
