# generated using pymatgen
data_Ga3Ni9HPt4O
_symmetry_space_group_name_H-M   'P 1'
_cell_length_a   5.07134866
_cell_length_b   5.07134866
_cell_length_c   21.21110826
_cell_angle_alpha   90.00000000
_cell_angle_beta   90.00000000
_cell_angle_gamma   120.00000000
_symmetry_Int_Tables_number   1
_chemical_formula_structural   Ga3Ni9HPt4O
_chemical_formula_sum   'Ga3 Ni9 H1 Pt4 O1'
_cell_volume   472.43376805
_cell_formula_units_Z   1
loop_
 _symmetry_equiv_pos_site_id
 _symmetry_equiv_pos_as_xyz
  1  'x, y, z'
loop_
 _atom_site_type_symbol
 _atom_site_label
 _atom_site_symmetry_multiplicity
 _atom_site_fract_x
 _atom_site_fract_y
 _atom_site_fract_z
 _atom_site_occupancy
  Ni  Ni0  1  0.000000  0.000000  0.353588  1
  Ni  Ni1  1  0.500000  0.000000  0.353588  1
  Ni  Ni2  1  0.500000  0.500000  0.353588  1
  Ga  Ga3  1  0.000000  0.500000  0.353588  1
  Ni  Ni4  1  0.666667  0.333333  0.451196  1
  Ni  Ni5  1  0.166667  0.333333  0.451196  1
  Ni  Ni6  1  0.166667  0.833333  0.451196  1
  Ga  Ga7  1  0.666667  0.833333  0.451196  1
  Ni  Ni8  1  0.328004  0.659477  0.550531  1
  Ni  Ni9  1  0.831473  0.659477  0.550531  1
  Ni  Ni10  1  0.835640  0.171280  0.548149  1
  Ga  Ga11  1  0.335766  0.171533  0.547403  1
  Pt  Pt12  1  1.005265  0.010370  0.650290  1
  Pt  Pt13  1  0.505106  1.010370  0.650290  1
  Pt  Pt14  1  0.515217  0.530433  0.705104  1
  Pt  Pt15  1  1.005347  0.510695  0.670001  1
  O  O16  1  0.390343  0.280687  0.783250  1
  H  H17  1  0.467845  0.435691  0.816569  1
