# generated using pymatgen
data_Ni9HIr3Pt4O
_symmetry_space_group_name_H-M   'P 1'
_cell_length_a   5.11269545
_cell_length_b   5.11269545
_cell_length_c   21.26174753
_cell_angle_alpha   90.00000000
_cell_angle_beta   90.00000000
_cell_angle_gamma   120.00000000
_symmetry_Int_Tables_number   1
_chemical_formula_structural   Ni9HIr3Pt4O
_chemical_formula_sum   'Ni9 Ir3 H1 Pt4 O1'
_cell_volume   481.31504372
_cell_formula_units_Z   1
loop_
 _symmetry_equiv_pos_site_id
 _symmetry_equiv_pos_as_xyz
  1  'x, y, z'
loop_
 _atom_site_type_symbol
 _atom_site_label
 _atom_site_symmetry_multiplicity
 _atom_site_fract_x
 _atom_site_fract_y
 _atom_site_fract_z
 _atom_site_occupancy
  Ni  Ni0  1  0.000000  0.000000  0.352746  1
  Ni  Ni1  1  0.500000  0.000000  0.352746  1
  Ni  Ni2  1  0.500000  0.500000  0.352746  1
  Ir  Ir3  1  0.000000  0.500000  0.352746  1
  Ni  Ni4  1  0.666667  0.333333  0.450915  1
  Ni  Ni5  1  0.166667  0.333333  0.450915  1
  Ni  Ni6  1  0.166667  0.833333  0.450915  1
  Ir  Ir7  1  0.666667  0.833333  0.450915  1
  Ni  Ni8  1  0.332668  0.666731  0.547744  1
  Ni  Ni9  1  0.834063  0.666731  0.547744  1
  Ni  Ni10  1  0.831331  0.162661  0.547025  1
  Ir  Ir11  1  0.339388  0.178776  0.552429  1
  Pt  Pt12  1  -0.018694  -0.034161  0.655965  1
  Pt  Pt13  1  0.484533  -0.034161  0.655965  1
  Pt  Pt14  1  0.482139  0.464278  0.676167  1
  Pt  Pt15  1  0.983964  0.467928  0.651511  1
  O  O16  1  0.494455  0.488911  0.771215  1
  H  H17  1  0.600943  0.701885  0.783638  1
