# generated using pymatgen
data_La3Ni9HPt4O
_symmetry_space_group_name_H-M   'P 1'
_cell_length_a   5.60331836
_cell_length_b   5.60331836
_cell_length_c   21.86263543
_cell_angle_alpha   90.00000000
_cell_angle_beta   90.00000000
_cell_angle_gamma   120.00000000
_symmetry_Int_Tables_number   1
_chemical_formula_structural   La3Ni9HPt4O
_chemical_formula_sum   'La3 Ni9 H1 Pt4 O1'
_cell_volume   594.46151103
_cell_formula_units_Z   1
loop_
 _symmetry_equiv_pos_site_id
 _symmetry_equiv_pos_as_xyz
  1  'x, y, z'
loop_
 _atom_site_type_symbol
 _atom_site_label
 _atom_site_symmetry_multiplicity
 _atom_site_fract_x
 _atom_site_fract_y
 _atom_site_fract_z
 _atom_site_occupancy
  Ni  Ni0  1  0.000000  0.000000  0.343051  1
  Ni  Ni1  1  0.500000  0.000000  0.343051  1
  Ni  Ni2  1  0.500000  0.500000  0.343051  1
  La  La3  1  0.000000  0.500000  0.343051  1
  Ni  Ni4  1  0.666667  0.333333  0.447684  1
  Ni  Ni5  1  0.166667  0.333333  0.447684  1
  Ni  Ni6  1  0.166667  0.833333  0.447684  1
  La  La7  1  0.666667  0.833333  0.447684  1
  Ni  Ni8  1  0.318042  0.649168  0.559852  1
  Ni  Ni9  1  0.831126  0.649168  0.559852  1
  Ni  Ni10  1  0.851515  0.203030  0.554015  1
  La  La11  1  0.328555  0.157110  0.552005  1
  Pt  Pt12  1  -0.001413  0.009295  0.659269  1
  Pt  Pt13  1  0.510708  0.009295  0.659269  1
  Pt  Pt14  1  0.511087  0.522173  0.664569  1
  Pt  Pt15  1  0.005994  0.511989  0.655735  1
  O  O16  1  0.472228  0.444455  0.756391  1
  H  H17  1  0.563745  0.627491  0.775328  1
