# generated using pymatgen
data_Ni9HOs3Pt4O
_symmetry_space_group_name_H-M   'P 1'
_cell_length_a   5.10261281
_cell_length_b   5.10261281
_cell_length_c   21.24939888
_cell_angle_alpha   90.00000000
_cell_angle_beta   90.00000000
_cell_angle_gamma   120.00000000
_symmetry_Int_Tables_number   1
_chemical_formula_structural   Ni9HOs3Pt4O
_chemical_formula_sum   'Ni9 Os3 H1 Pt4 O1'
_cell_volume   479.14009122
_cell_formula_units_Z   1
loop_
 _symmetry_equiv_pos_site_id
 _symmetry_equiv_pos_as_xyz
  1  'x, y, z'
loop_
 _atom_site_type_symbol
 _atom_site_label
 _atom_site_symmetry_multiplicity
 _atom_site_fract_x
 _atom_site_fract_y
 _atom_site_fract_z
 _atom_site_occupancy
  Ni  Ni0  1  0.000000  0.000000  0.352951  1
  Ni  Ni1  1  0.500000  0.000000  0.352951  1
  Ni  Ni2  1  0.500000  0.500000  0.352951  1
  Os  Os3  1  -0.000000  0.500000  0.352951  1
  Ni  Ni4  1  0.666667  0.333333  0.450984  1
  Ni  Ni5  1  0.166667  0.333333  0.450984  1
  Ni  Ni6  1  0.166667  0.833333  0.450984  1
  Os  Os7  1  0.666667  0.833333  0.450984  1
  Ni  Ni8  1  0.337016  0.672300  0.546576  1
  Ni  Ni9  1  0.835284  0.672300  0.546576  1
  Ni  Ni10  1  0.830945  0.161889  0.545234  1
  Os  Os11  1  0.344260  0.188520  0.559887  1
  Pt  Pt12  1  0.973500  0.950168  0.658040  1
  Pt  Pt13  1  0.476669  0.950168  0.658040  1
  Pt  Pt14  1  0.474580  0.449160  0.680852  1
  Pt  Pt15  1  0.976426  0.452851  0.651419  1
  O  O16  1  0.502862  0.505723  0.776043  1
  H  H17  1  0.610368  0.720737  0.787142  1
