# generated using pymatgen
data_Ni9HPt4Pb3O
_symmetry_space_group_name_H-M   'P 1'
_cell_length_a   5.39408954
_cell_length_b   5.39408954
_cell_length_c   21.60638350
_cell_angle_alpha   90.00000000
_cell_angle_beta   90.00000000
_cell_angle_gamma   120.00000000
_symmetry_Int_Tables_number   1
_chemical_formula_structural   Ni9HPt4Pb3O
_chemical_formula_sum   'Ni9 H1 Pt4 Pb3 O1'
_cell_volume   544.43873301
_cell_formula_units_Z   1
loop_
 _symmetry_equiv_pos_site_id
 _symmetry_equiv_pos_as_xyz
  1  'x, y, z'
loop_
 _atom_site_type_symbol
 _atom_site_label
 _atom_site_symmetry_multiplicity
 _atom_site_fract_x
 _atom_site_fract_y
 _atom_site_fract_z
 _atom_site_occupancy
  Ni  Ni0  1  0.000000  0.000000  0.347120  1
  Ni  Ni1  1  0.500000  0.000000  0.347120  1
  Ni  Ni2  1  0.500000  0.500000  0.347120  1
  Pb  Pb3  1  -0.000000  0.500000  0.347120  1
  Ni  Ni4  1  0.666667  0.333333  0.449040  1
  Ni  Ni5  1  0.166667  0.333333  0.449040  1
  Ni  Ni6  1  0.166667  0.833333  0.449040  1
  Pb  Pb7  1  0.666667  0.833333  0.449040  1
  Ni  Ni8  1  0.325187  0.657616  0.554357  1
  Ni  Ni9  1  0.832429  0.657616  0.554357  1
  Ni  Ni10  1  0.839903  0.179806  0.551208  1
  Pb  Pb11  1  0.332659  0.165318  0.549524  1
  Pt  Pt12  1  -0.006073  0.993820  0.658374  1
  Pt  Pt13  1  0.499893  0.993820  0.658374  1
  Pt  Pt14  1  0.500124  0.500248  0.665298  1
  Pt  Pt15  1  -0.002599  0.494803  0.654992  1
  O  O16  1  0.470379  0.440758  0.758649  1
  H  H17  1  0.567456  0.634912  0.775759  1
