# generated using pymatgen
data_Ni9HPt7O
_symmetry_space_group_name_H-M   'P 1'
_cell_length_a   5.16868717
_cell_length_b   5.16868717
_cell_length_c   21.33032311
_cell_angle_alpha   90.00000000
_cell_angle_beta   90.00000000
_cell_angle_gamma   120.00000000
_symmetry_Int_Tables_number   1
_chemical_formula_structural   Ni9HPt7O
_chemical_formula_sum   'Ni9 H1 Pt7 O1'
_cell_volume   493.50159642
_cell_formula_units_Z   1
loop_
 _symmetry_equiv_pos_site_id
 _symmetry_equiv_pos_as_xyz
  1  'x, y, z'
loop_
 _atom_site_type_symbol
 _atom_site_label
 _atom_site_symmetry_multiplicity
 _atom_site_fract_x
 _atom_site_fract_y
 _atom_site_fract_z
 _atom_site_occupancy
  Ni  Ni0  1  0.000000  0.000000  0.351612  1
  Ni  Ni1  1  0.500000  0.000000  0.351612  1
  Ni  Ni2  1  0.500000  0.500000  0.351612  1
  Pt  Pt3  1  0.000000  0.500000  0.351612  1
  Ni  Ni4  1  0.666667  0.333333  0.450537  1
  Ni  Ni5  1  0.166667  0.333333  0.450537  1
  Ni  Ni6  1  0.166667  0.833333  0.450537  1
  Pt  Pt7  1  0.666667  0.833333  0.450537  1
  Ni  Ni8  1  0.328824  0.665886  0.549038  1
  Ni  Ni9  1  0.837062  0.665886  0.549038  1
  Ni  Ni10  1  0.833051  0.166103  0.548004  1
  Pt  Pt11  1  0.339071  0.178143  0.551879  1
  Pt  Pt12  1  -0.022590  -0.041360  0.657159  1
  Pt  Pt13  1  0.481230  -0.041360  0.657159  1
  Pt  Pt14  1  0.478815  0.457630  0.674434  1
  Pt  Pt15  1  -0.019704  0.460592  0.652801  1
  O  O16  1  0.488083  0.476165  0.768838  1
  H  H17  1  0.593484  0.686968  0.781242  1
