# generated using pymatgen
data_Re3Ni9HPt4O
_symmetry_space_group_name_H-M   'P 1'
_cell_length_a   5.12683944
_cell_length_b   5.12683944
_cell_length_c   21.27907031
_cell_angle_alpha   90.00000000
_cell_angle_beta   90.00000000
_cell_angle_gamma   120.00000000
_symmetry_Int_Tables_number   1
_chemical_formula_structural   Re3Ni9HPt4O
_chemical_formula_sum   'Re3 Ni9 H1 Pt4 O1'
_cell_volume   484.37610903
_cell_formula_units_Z   1
loop_
 _symmetry_equiv_pos_site_id
 _symmetry_equiv_pos_as_xyz
  1  'x, y, z'
loop_
 _atom_site_type_symbol
 _atom_site_label
 _atom_site_symmetry_multiplicity
 _atom_site_fract_x
 _atom_site_fract_y
 _atom_site_fract_z
 _atom_site_occupancy
  Ni  Ni0  1  0.000000  0.000000  0.352459  1
  Ni  Ni1  1  0.500000  0.000000  0.352459  1
  Ni  Ni2  1  0.500000  0.500000  0.352459  1
  Re  Re3  1  -0.000000  0.500000  0.352459  1
  Ni  Ni4  1  0.666667  0.333333  0.450820  1
  Ni  Ni5  1  0.166667  0.333333  0.450820  1
  Ni  Ni6  1  0.166667  0.833333  0.450820  1
  Re  Re7  1  0.666667  0.833333  0.450820  1
  Ni  Ni8  1  0.336736  0.670358  0.545833  1
  Ni  Ni9  1  0.833621  0.670358  0.545833  1
  Ni  Ni10  1  0.831247  0.162494  0.544383  1
  Re  Re11  1  0.344453  0.188906  0.561788  1
  Pt  Pt12  1  -0.026668  0.948976  0.657536  1
  Pt  Pt13  1  0.475644  -0.051024  0.657536  1
  Pt  Pt14  1  0.474186  0.448372  0.678588  1
  Pt  Pt15  1  -0.024526  0.450949  0.653035  1
  O  O16  1  0.516452  0.532905  0.773909  1
  H  H17  1  0.624111  0.748222  0.783791  1
