# generated using pymatgen
data_Ni9HRu3Pt4O
_symmetry_space_group_name_H-M   'P 1'
_cell_length_a   5.08692185
_cell_length_b   5.08692185
_cell_length_c   21.23018145
_cell_angle_alpha   90.00000000
_cell_angle_beta   90.00000000
_cell_angle_gamma   120.00000000
_symmetry_Int_Tables_number   1
_chemical_formula_structural   Ni9HRu3Pt4O
_chemical_formula_sum   'Ni9 Ru3 H1 Pt4 O1'
_cell_volume   475.76716872
_cell_formula_units_Z   1
loop_
 _symmetry_equiv_pos_site_id
 _symmetry_equiv_pos_as_xyz
  1  'x, y, z'
loop_
 _atom_site_type_symbol
 _atom_site_label
 _atom_site_symmetry_multiplicity
 _atom_site_fract_x
 _atom_site_fract_y
 _atom_site_fract_z
 _atom_site_occupancy
  Ni  Ni0  1  0.000000  0.000000  0.353271  1
  Ni  Ni1  1  0.500000  1.000000  0.353271  1
  Ni  Ni2  1  0.500000  0.500000  0.353271  1
  Ru  Ru3  1  0.000000  0.500000  0.353271  1
  Ni  Ni4  1  0.666667  0.333333  0.451090  1
  Ni  Ni5  1  0.166667  0.333333  0.451090  1
  Ni  Ni6  1  0.166667  0.833333  0.451090  1
  Ru  Ru7  1  0.666667  0.833333  0.451090  1
  Ni  Ni8  1  0.333735  0.668503  0.546889  1
  Ni  Ni9  1  0.834768  0.668503  0.546889  1
  Ni  Ni10  1  0.829132  0.158264  0.545204  1
  Ru  Ru11  1  0.343395  0.186791  0.560087  1
  Pt  Pt12  1  0.970188  0.944059  0.658753  1
  Pt  Pt13  1  0.473871  0.944059  0.658753  1
  Pt  Pt14  1  0.471359  0.442718  0.684988  1
  Pt  Pt15  1  0.973692  0.447384  0.649118  1
  O  O16  1  0.498053  0.496106  0.779517  1
  H  H17  1  0.606279  0.712557  0.790112  1
