# generated using pymatgen
data_Sc3Ni9HPt4O
_symmetry_space_group_name_H-M   'P 1'
_cell_length_a   5.25436007
_cell_length_b   5.25436007
_cell_length_c   21.43525054
_cell_angle_alpha   90.00000000
_cell_angle_beta   90.00000000
_cell_angle_gamma   120.00000000
_symmetry_Int_Tables_number   1
_chemical_formula_structural   Sc3Ni9HPt4O
_chemical_formula_sum   'Sc3 Ni9 H1 Pt4 O1'
_cell_volume   512.50588518
_cell_formula_units_Z   1
loop_
 _symmetry_equiv_pos_site_id
 _symmetry_equiv_pos_as_xyz
  1  'x, y, z'
loop_
 _atom_site_type_symbol
 _atom_site_label
 _atom_site_symmetry_multiplicity
 _atom_site_fract_x
 _atom_site_fract_y
 _atom_site_fract_z
 _atom_site_occupancy
  Ni  Ni0  1  0.000000  0.000000  0.349891  1
  Ni  Ni1  1  0.500000  0.000000  0.349891  1
  Ni  Ni2  1  0.500000  0.500000  0.349891  1
  Sc  Sc3  1  -0.000000  0.500000  0.349891  1
  Ni  Ni4  1  0.666667  0.333333  0.449964  1
  Ni  Ni5  1  0.166667  0.333333  0.449964  1
  Ni  Ni6  1  0.166667  0.833333  0.449964  1
  Sc  Sc7  1  0.666667  0.833333  0.449964  1
  Ni  Ni8  1  0.326206  0.654910  0.552486  1
  Ni  Ni9  1  0.828703  0.654910  0.552486  1
  Ni  Ni10  1  0.836637  0.173274  0.550430  1
  Sc  Sc11  1  0.330977  0.161954  0.550723  1
  Pt  Pt12  1  0.004530  0.010900  0.656356  1
  Pt  Pt13  1  0.506370  0.010900  0.656356  1
  Pt  Pt14  1  0.507696  0.515391  0.663844  1
  Pt  Pt15  1  0.005422  0.510844  0.653815  1
  O  O16  1  0.472473  0.444946  0.759332  1
  H  H17  1  0.570547  0.641094  0.778147  1
