# generated using pymatgen
data_Ni9Sb3HPt4O
_symmetry_space_group_name_H-M   'P 1'
_cell_length_a   5.28337922
_cell_length_b   5.28337922
_cell_length_c   21.47079160
_cell_angle_alpha   90.00000000
_cell_angle_beta   90.00000000
_cell_angle_gamma   120.00000000
_symmetry_Int_Tables_number   1
_chemical_formula_structural   Ni9Sb3HPt4O
_chemical_formula_sum   'Ni9 Sb3 H1 Pt4 O1'
_cell_volume   519.04170616
_cell_formula_units_Z   1
loop_
 _symmetry_equiv_pos_site_id
 _symmetry_equiv_pos_as_xyz
  1  'x, y, z'
loop_
 _atom_site_type_symbol
 _atom_site_label
 _atom_site_symmetry_multiplicity
 _atom_site_fract_x
 _atom_site_fract_y
 _atom_site_fract_z
 _atom_site_occupancy
  Ni  Ni0  1  0.000000  0.000000  0.349312  1
  Ni  Ni1  1  0.500000  0.000000  0.349312  1
  Ni  Ni2  1  0.500000  0.500000  0.349312  1
  Sb  Sb3  1  0.000000  0.500000  0.349312  1
  Ni  Ni4  1  0.666667  0.333333  0.449771  1
  Ni  Ni5  1  0.166667  0.333333  0.449771  1
  Ni  Ni6  1  0.166667  0.833333  0.449771  1
  Sb  Sb7  1  0.666667  0.833333  0.449771  1
  Ni  Ni8  1  0.331238  0.658327  0.552410  1
  Ni  Ni9  1  0.827088  0.658327  0.552410  1
  Ni  Ni10  1  0.836554  0.173108  0.549008  1
  Sb  Sb11  1  0.332823  0.165646  0.551287  1
  Pt  Pt12  1  1.003352  1.010301  0.657733  1
  Pt  Pt13  1  0.506949  1.010301  0.657733  1
  Pt  Pt14  1  0.507996  0.515993  0.668960  1
  Pt  Pt15  1  1.005176  0.510352  0.655667  1
  O  O16  1  0.470029  0.440059  0.762484  1
  H  H17  1  0.567483  0.634966  0.781371  1
