# generated using pymatgen
data_Ta3Ni9HPt4O
_symmetry_space_group_name_H-M   'P 1'
_cell_length_a   5.21142609
_cell_length_b   5.21142609
_cell_length_c   21.38266738
_cell_angle_alpha   90.00000000
_cell_angle_beta   90.00000000
_cell_angle_gamma   120.00000000
_symmetry_Int_Tables_number   1
_chemical_formula_structural   Ta3Ni9HPt4O
_chemical_formula_sum   'Ta3 Ni9 H1 Pt4 O1'
_cell_volume   502.92784163
_cell_formula_units_Z   1
loop_
 _symmetry_equiv_pos_site_id
 _symmetry_equiv_pos_as_xyz
  1  'x, y, z'
loop_
 _atom_site_type_symbol
 _atom_site_label
 _atom_site_symmetry_multiplicity
 _atom_site_fract_x
 _atom_site_fract_y
 _atom_site_fract_z
 _atom_site_occupancy
  Ni  Ni0  1  0.000000  0.000000  0.350751  1
  Ni  Ni1  1  0.500000  1.000000  0.350751  1
  Ni  Ni2  1  0.500000  0.500000  0.350751  1
  Ta  Ta3  1  0.000000  0.500000  0.350751  1
  Ni  Ni4  1  0.666667  0.333333  0.450250  1
  Ni  Ni5  1  0.166667  0.333333  0.450250  1
  Ni  Ni6  1  0.166667  0.833333  0.450250  1
  Ta  Ta7  1  0.666667  0.833333  0.450250  1
  Ni  Ni8  1  0.334449  0.662976  0.549000  1
  Ni  Ni9  1  0.828528  0.662976  0.549000  1
  Ni  Ni10  1  0.837374  0.174748  0.546434  1
  Ta  Ta11  1  0.334851  0.169703  0.553193  1
  Pt  Pt12  1  0.004714  1.010927  0.654336  1
  Pt  Pt13  1  0.506213  1.010927  0.654336  1
  Pt  Pt14  1  0.507892  0.515784  0.661049  1
  Pt  Pt15  1  0.004977  0.509954  0.655966  1
  O  O16  1  0.473412  0.446823  0.757783  1
  H  H17  1  0.571905  0.643811  0.776924  1
