# generated using pymatgen
data_Ti3Ni9HPt4O
_symmetry_space_group_name_H-M   'P 1'
_cell_length_a   5.10593576
_cell_length_b   5.10593576
_cell_length_c   21.25346864
_cell_angle_alpha   90.00000000
_cell_angle_beta   90.00000000
_cell_angle_gamma   120.00000000
_symmetry_Int_Tables_number   1
_chemical_formula_structural   Ti3Ni9HPt4O
_chemical_formula_sum   'Ti3 Ni9 H1 Pt4 O1'
_cell_volume   479.85623590
_cell_formula_units_Z   1
loop_
 _symmetry_equiv_pos_site_id
 _symmetry_equiv_pos_as_xyz
  1  'x, y, z'
loop_
 _atom_site_type_symbol
 _atom_site_label
 _atom_site_symmetry_multiplicity
 _atom_site_fract_x
 _atom_site_fract_y
 _atom_site_fract_z
 _atom_site_occupancy
  Ni  Ni0  1  0.000000  0.000000  0.352884  1
  Ni  Ni1  1  0.500000  0.000000  0.352884  1
  Ni  Ni2  1  0.500000  0.500000  0.352884  1
  Ti  Ti3  1  -0.000000  0.500000  0.352884  1
  Ni  Ni4  1  0.666667  0.333333  0.450961  1
  Ni  Ni5  1  0.166667  0.333333  0.450961  1
  Ni  Ni6  1  0.166667  0.833333  0.450961  1
  Ti  Ti7  1  0.666667  0.833333  0.450961  1
  Ni  Ni8  1  0.332588  0.657371  0.551242  1
  Ni  Ni9  1  0.824783  0.657371  0.551242  1
  Ni  Ni10  1  0.835955  0.171910  0.546882  1
  Ti  Ti11  1  0.332948  0.165895  0.548830  1
  Pt  Pt12  1  0.012367  0.024337  0.652604  1
  Pt  Pt13  1  0.511971  0.024337  0.652604  1
  Pt  Pt14  1  0.513062  0.526123  0.669901  1
  Pt  Pt15  1  0.011366  0.522733  0.658175  1
  O  O16  1  0.496441  0.492882  0.766587  1
  H  H17  1  0.600156  0.700311  0.782712  1
