# generated using pymatgen
data_V3Ni9HPt4O
_symmetry_space_group_name_H-M   'P 1'
_cell_length_a   5.04431405
_cell_length_b   5.04431405
_cell_length_c   21.17799776
_cell_angle_alpha   90.00000000
_cell_angle_beta   90.00000000
_cell_angle_gamma   120.00000000
_symmetry_Int_Tables_number   1
_chemical_formula_structural   V3Ni9HPt4O
_chemical_formula_sum   'V3 Ni9 H1 Pt4 O1'
_cell_volume   466.68061678
_cell_formula_units_Z   1
loop_
 _symmetry_equiv_pos_site_id
 _symmetry_equiv_pos_as_xyz
  1  'x, y, z'
loop_
 _atom_site_type_symbol
 _atom_site_label
 _atom_site_symmetry_multiplicity
 _atom_site_fract_x
 _atom_site_fract_y
 _atom_site_fract_z
 _atom_site_occupancy
  Ni  Ni0  1  0.000000  0.000000  0.354141  1
  Ni  Ni1  1  0.500000  0.000000  0.354141  1
  Ni  Ni2  1  0.500000  0.500000  0.354141  1
  V  V3  1  -0.000000  0.500000  0.354141  1
  Ni  Ni4  1  0.666667  0.333333  0.451380  1
  Ni  Ni5  1  0.166667  0.333333  0.451380  1
  Ni  Ni6  1  0.166667  0.833333  0.451380  1
  V  V7  1  0.666667  0.833333  0.451380  1
  Ni  Ni8  1  0.332754  0.661663  0.548523  1
  Ni  Ni9  1  0.828909  0.661663  0.548523  1
  Ni  Ni10  1  0.833650  0.167300  0.544550  1
  V  V11  1  0.336102  0.172204  0.551351  1
  Pt  Pt12  1  1.010833  0.021331  0.650512  1
  Pt  Pt13  1  0.510499  0.021331  0.650512  1
  Pt  Pt14  1  0.511210  0.522420  0.664193  1
  Pt  Pt15  1  1.009738  0.519475  0.673500  1
  O  O16  1  0.501673  0.503345  0.763351  1
  H  H17  1  0.607228  0.714456  0.778833  1
