# generated using pymatgen
data_HPd9Pt4Au3O
_symmetry_space_group_name_H-M   'P 1'
_cell_length_a   5.65014084
_cell_length_b   5.65014084
_cell_length_c   21.91998101
_cell_angle_alpha   90.00000000
_cell_angle_beta   90.00000000
_cell_angle_gamma   120.00000000
_symmetry_Int_Tables_number   1
_chemical_formula_structural   HPd9Pt4Au3O
_chemical_formula_sum   'Pd9 H1 Pt4 Au3 O1'
_cell_volume   606.02334174
_cell_formula_units_Z   1
loop_
 _symmetry_equiv_pos_site_id
 _symmetry_equiv_pos_as_xyz
  1  'x, y, z'
loop_
 _atom_site_type_symbol
 _atom_site_label
 _atom_site_symmetry_multiplicity
 _atom_site_fract_x
 _atom_site_fract_y
 _atom_site_fract_z
 _atom_site_occupancy
  Pd  Pd0  1  0.000000  0.000000  0.342154  1
  Pd  Pd1  1  0.500000  0.000000  0.342154  1
  Pd  Pd2  1  0.500000  0.500000  0.342154  1
  Au  Au3  1  -0.000000  0.500000  0.342154  1
  Pd  Pd4  1  0.666667  0.333333  0.447385  1
  Pd  Pd5  1  0.166667  0.333333  0.447385  1
  Pd  Pd6  1  0.166667  0.833333  0.447385  1
  Au  Au7  1  0.666667  0.833333  0.447385  1
  Pd  Pd8  1  0.333160  0.662826  0.554765  1
  Pd  Pd9  1  0.829666  0.662826  0.554765  1
  Pd  Pd10  1  0.832823  0.165646  0.552652  1
  Au  Au11  1  0.333394  0.166788  0.553105  1
  Pt  Pt12  1  0.996212  -0.004771  0.658767  1
  Pt  Pt13  1  0.499017  -0.004771  0.658767  1
  Pt  Pt14  1  0.499857  0.499715  0.665968  1
  Pt  Pt15  1  -0.002018  0.495964  0.658518  1
  O  O16  1  0.481868  0.463735  0.756738  1
  H  H17  1  0.575400  0.650799  0.772702  1
