# generated using pymatgen
data_Ag3HPd9Pt4O
_symmetry_space_group_name_H-M   'P 1'
_cell_length_a   5.63848485
_cell_length_b   5.63848485
_cell_length_c   21.90570541
_cell_angle_alpha   90.00000000
_cell_angle_beta   90.00000000
_cell_angle_gamma   120.00000000
_symmetry_Int_Tables_number   1
_chemical_formula_structural   Ag3HPd9Pt4O
_chemical_formula_sum   'Ag3 Pd9 H1 Pt4 O1'
_cell_volume   603.13247145
_cell_formula_units_Z   1
loop_
 _symmetry_equiv_pos_site_id
 _symmetry_equiv_pos_as_xyz
  1  'x, y, z'
loop_
 _atom_site_type_symbol
 _atom_site_label
 _atom_site_symmetry_multiplicity
 _atom_site_fract_x
 _atom_site_fract_y
 _atom_site_fract_z
 _atom_site_occupancy
  Pd  Pd0  1  0.000000  0.000000  0.342377  1
  Pd  Pd1  1  0.500000  0.000000  0.342377  1
  Pd  Pd2  1  0.500000  0.500000  0.342377  1
  Ag  Ag3  1  0.000000  0.500000  0.342377  1
  Pd  Pd4  1  0.666667  0.333333  0.447459  1
  Pd  Pd5  1  0.166667  0.333333  0.447459  1
  Pd  Pd6  1  0.166667  0.833333  0.447459  1
  Ag  Ag7  1  0.666667  0.833333  0.447459  1
  Pd  Pd8  1  0.333990  0.663490  0.555308  1
  Pd  Pd9  1  0.829500  0.663490  0.555308  1
  Pd  Pd10  1  0.833109  0.166218  0.553023  1
  Ag  Ag11  1  0.333427  0.166853  0.552969  1
  Pt  Pt12  1  0.999347  0.000950  0.659166  1
  Pt  Pt13  1  0.501604  0.000950  0.659166  1
  Pt  Pt14  1  0.503401  0.506801  0.665833  1
  Pt  Pt15  1  0.000616  0.501232  0.658961  1
  O  O16  1  0.477400  0.454799  0.756532  1
  H  H17  1  0.569998  0.639996  0.773790  1
