# generated using pymatgen
data_Al3HPd9Pt4O
_symmetry_space_group_name_H-M   'P 1'
_cell_length_a   5.52093585
_cell_length_b   5.52093585
_cell_length_c   21.76173787
_cell_angle_alpha   90.00000000
_cell_angle_beta   90.00000000
_cell_angle_gamma   120.00000000
_symmetry_Int_Tables_number   1
_chemical_formula_structural   Al3HPd9Pt4O
_chemical_formula_sum   'Al3 Pd9 H1 Pt4 O1'
_cell_volume   574.44652696
_cell_formula_units_Z   1
loop_
 _symmetry_equiv_pos_site_id
 _symmetry_equiv_pos_as_xyz
  1  'x, y, z'
loop_
 _atom_site_type_symbol
 _atom_site_label
 _atom_site_symmetry_multiplicity
 _atom_site_fract_x
 _atom_site_fract_y
 _atom_site_fract_z
 _atom_site_occupancy
  Pd  Pd0  1  0.000000  0.000000  0.344642  1
  Pd  Pd1  1  0.500000  0.000000  0.344642  1
  Pd  Pd2  1  0.500000  0.500000  0.344642  1
  Al  Al3  1  0.000000  0.500000  0.344642  1
  Pd  Pd4  1  0.666667  0.333333  0.448214  1
  Pd  Pd5  1  0.166667  0.333333  0.448214  1
  Pd  Pd6  1  0.166667  0.833333  0.448214  1
  Al  Al7  1  0.666667  0.833333  0.448214  1
  Pd  Pd8  1  0.327966  0.649338  0.552523  1
  Pd  Pd9  1  0.821372  0.649338  0.552523  1
  Pd  Pd10  1  0.824527  0.149053  0.549327  1
  Al  Al11  1  0.327809  0.155617  0.556245  1
  Pt  Pt12  1  0.007165  0.007851  0.655998  1
  Pt  Pt13  1  0.500687  0.007851  0.655998  1
  Pt  Pt14  1  0.505112  0.510223  0.662902  1
  Pt  Pt15  1  0.001628  0.503257  0.658573  1
  O  O16  1  0.480460  0.460921  0.755554  1
  H  H17  1  0.575340  0.650680  0.772541  1
