# generated using pymatgen
data_As3HPd9Pt4O
_symmetry_space_group_name_H-M   'P 1'
_cell_length_a   5.60107717
_cell_length_b   5.60107717
_cell_length_c   21.85989054
_cell_angle_alpha   90.00000000
_cell_angle_beta   90.00000000
_cell_angle_gamma   120.00000000
_symmetry_Int_Tables_number   1
_chemical_formula_structural   As3HPd9Pt4O
_chemical_formula_sum   'As3 Pd9 H1 Pt4 O1'
_cell_volume   593.91148939
_cell_formula_units_Z   1
loop_
 _symmetry_equiv_pos_site_id
 _symmetry_equiv_pos_as_xyz
  1  'x, y, z'
loop_
 _atom_site_type_symbol
 _atom_site_label
 _atom_site_symmetry_multiplicity
 _atom_site_fract_x
 _atom_site_fract_y
 _atom_site_fract_z
 _atom_site_occupancy
  Pd  Pd0  1  0.000000  0.000000  0.343094  1
  Pd  Pd1  1  0.500000  0.000000  0.343094  1
  Pd  Pd2  1  0.500000  0.500000  0.343094  1
  As  As3  1  0.000000  0.500000  0.343094  1
  Pd  Pd4  1  0.666667  0.333333  0.447698  1
  Pd  Pd5  1  0.166667  0.333333  0.447698  1
  Pd  Pd6  1  0.166667  0.833333  0.447698  1
  As  As7  1  0.666667  0.833333  0.447698  1
  Pd  Pd8  1  0.318024  0.632124  0.556149  1
  Pd  Pd9  1  0.814100  0.632124  0.556149  1
  Pd  Pd10  1  0.816873  0.133746  0.548161  1
  As  As11  1  0.339865  0.179731  0.570902  1
  Pt  Pt12  1  0.005914  1.011940  0.659382  1
  Pt  Pt13  1  0.506026  1.011940  0.659382  1
  Pt  Pt14  1  0.513154  0.526309  0.671632  1
  Pt  Pt15  1  0.004139  0.508278  0.662570  1
  O  O16  1  0.481983  0.463966  0.762757  1
  H  H17  1  0.573878  0.647755  0.781329  1
