# generated using pymatgen
data_Cu3HPd9Pt4O
_symmetry_space_group_name_H-M   'P 1'
_cell_length_a   5.47976384
_cell_length_b   5.47976384
_cell_length_c   21.71131266
_cell_angle_alpha   90.00000000
_cell_angle_beta   90.00000000
_cell_angle_gamma   120.00000000
_symmetry_Int_Tables_number   1
_chemical_formula_structural   Cu3HPd9Pt4O
_chemical_formula_sum   'Cu3 Pd9 H1 Pt4 O1'
_cell_volume   564.59938194
_cell_formula_units_Z   1
loop_
 _symmetry_equiv_pos_site_id
 _symmetry_equiv_pos_as_xyz
  1  'x, y, z'
loop_
 _atom_site_type_symbol
 _atom_site_label
 _atom_site_symmetry_multiplicity
 _atom_site_fract_x
 _atom_site_fract_y
 _atom_site_fract_z
 _atom_site_occupancy
  Pd  Pd0  1  0.000000  0.000000  0.345442  1
  Pd  Pd1  1  0.500000  0.000000  0.345442  1
  Pd  Pd2  1  0.500000  0.500000  0.345442  1
  Cu  Cu3  1  0.000000  0.500000  0.345442  1
  Pd  Pd4  1  0.666667  0.333333  0.448481  1
  Pd  Pd5  1  0.166667  0.333333  0.448481  1
  Pd  Pd6  1  0.166667  0.833333  0.448481  1
  Cu  Cu7  1  0.666667  0.833333  0.448481  1
  Pd  Pd8  1  0.333633  0.659826  0.553392  1
  Pd  Pd9  1  0.826193  0.659826  0.553392  1
  Pd  Pd10  1  0.829979  0.159957  0.550831  1
  Cu  Cu11  1  0.332134  0.164268  0.553173  1
  Pt  Pt12  1  0.004835  0.005332  0.656913  1
  Pt  Pt13  1  0.500496  1.005332  0.656913  1
  Pt  Pt14  1  0.503273  0.506546  0.666044  1
  Pt  Pt15  1  0.001185  0.502370  0.660269  1
  O  O16  1  0.480679  0.461358  0.758303  1
  H  H17  1  0.576719  0.653437  0.774864  1
