# generated using pymatgen
data_Co3HPd9Pt4O
_symmetry_space_group_name_H-M   'P 1'
_cell_length_a   5.46094345
_cell_length_b   5.46094345
_cell_length_c   21.68826248
_cell_angle_alpha   90.00000000
_cell_angle_beta   90.00000000
_cell_angle_gamma   120.00000000
_symmetry_Int_Tables_number   1
_chemical_formula_structural   Co3HPd9Pt4O
_chemical_formula_sum   'Co3 Pd9 H1 Pt4 O1'
_cell_volume   560.13247311
_cell_formula_units_Z   1
loop_
 _symmetry_equiv_pos_site_id
 _symmetry_equiv_pos_as_xyz
  1  'x, y, z'
loop_
 _atom_site_type_symbol
 _atom_site_label
 _atom_site_symmetry_multiplicity
 _atom_site_fract_x
 _atom_site_fract_y
 _atom_site_fract_z
 _atom_site_occupancy
  Pd  Pd0  1  0.000000  0.000000  0.345809  1
  Pd  Pd1  1  0.500000  0.000000  0.345809  1
  Pd  Pd2  1  0.500000  0.500000  0.345809  1
  Co  Co3  1  0.000000  0.500000  0.345809  1
  Pd  Pd4  1  0.666667  0.333333  0.448603  1
  Pd  Pd5  1  0.166667  0.333333  0.448603  1
  Pd  Pd6  1  0.166667  0.833333  0.448603  1
  Co  Co7  1  0.666667  0.833333  0.448603  1
  Pd  Pd8  1  0.333095  0.659446  0.552263  1
  Pd  Pd9  1  0.826351  0.659446  0.552263  1
  Pd  Pd10  1  0.829664  0.159328  0.549404  1
  Co  Co11  1  0.334301  0.168603  0.556104  1
  Pt  Pt12  1  0.004991  1.004681  0.655653  1
  Pt  Pt13  1  0.499690  1.004681  0.655653  1
  Pt  Pt14  1  0.501599  0.503198  0.666327  1
  Pt  Pt15  1  0.000620  0.501241  0.660013  1
  O  O16  1  0.493315  0.486630  0.759321  1
  H  H17  1  0.591271  0.682542  0.773895  1
