# generated using pymatgen
data_Cr3HPd9Pt4O
_symmetry_space_group_name_H-M   'P 1'
_cell_length_a   5.50889905
_cell_length_b   5.50889905
_cell_length_c   21.74699586
_cell_angle_alpha   90.00000000
_cell_angle_beta   90.00000000
_cell_angle_gamma   120.00000000
_symmetry_Int_Tables_number   1
_chemical_formula_structural   Cr3HPd9Pt4O
_chemical_formula_sum   'Cr3 Pd9 H1 Pt4 O1'
_cell_volume   571.55697809
_cell_formula_units_Z   1
loop_
 _symmetry_equiv_pos_site_id
 _symmetry_equiv_pos_as_xyz
  1  'x, y, z'
loop_
 _atom_site_type_symbol
 _atom_site_label
 _atom_site_symmetry_multiplicity
 _atom_site_fract_x
 _atom_site_fract_y
 _atom_site_fract_z
 _atom_site_occupancy
  Pd  Pd0  1  0.000000  0.000000  0.344875  1
  Pd  Pd1  1  0.500000  0.000000  0.344875  1
  Pd  Pd2  1  0.500000  0.500000  0.344875  1
  Cr  Cr3  1  0.000000  0.500000  0.344875  1
  Pd  Pd4  1  0.666667  0.333333  0.448292  1
  Pd  Pd5  1  0.166667  0.333333  0.448292  1
  Pd  Pd6  1  0.166667  0.833333  0.448292  1
  Cr  Cr7  1  0.666667  0.833333  0.448292  1
  Pd  Pd8  1  0.336727  0.661180  0.549276  1
  Pd  Pd9  1  0.824453  0.661180  0.549276  1
  Pd  Pd10  1  0.829810  0.159620  0.546531  1
  Cr  Cr11  1  0.334799  0.169597  0.555869  1
  Pt  Pt12  1  1.011517  0.012760  0.651848  1
  Pt  Pt13  1  0.501243  0.012760  0.651848  1
  Pt  Pt14  1  0.507415  0.514829  0.659986  1
  Pt  Pt15  1  0.003318  0.506636  0.656650  1
  O  O16  1  0.482583  0.465166  0.753259  1
  H  H17  1  0.576807  0.653613  0.771004  1
