# generated using pymatgen
data_Fe3HPd9Pt4O
_symmetry_space_group_name_H-M   'P 1'
_cell_length_a   5.50365964
_cell_length_b   5.50365964
_cell_length_c   21.74057892
_cell_angle_alpha   90.00000000
_cell_angle_beta   90.00000000
_cell_angle_gamma   120.00000000
_symmetry_Int_Tables_number   1
_chemical_formula_structural   Fe3HPd9Pt4O
_chemical_formula_sum   'Fe3 Pd9 H1 Pt4 O1'
_cell_volume   570.30197205
_cell_formula_units_Z   1
loop_
 _symmetry_equiv_pos_site_id
 _symmetry_equiv_pos_as_xyz
  1  'x, y, z'
loop_
 _atom_site_type_symbol
 _atom_site_label
 _atom_site_symmetry_multiplicity
 _atom_site_fract_x
 _atom_site_fract_y
 _atom_site_fract_z
 _atom_site_occupancy
  Pd  Pd0  1  0.000000  0.000000  0.344977  1
  Pd  Pd1  1  0.500000  1.000000  0.344977  1
  Pd  Pd2  1  0.500000  0.500000  0.344977  1
  Fe  Fe3  1  0.000000  0.500000  0.344977  1
  Pd  Pd4  1  0.666667  0.333333  0.448326  1
  Pd  Pd5  1  0.166667  0.333333  0.448326  1
  Pd  Pd6  1  0.166667  0.833333  0.448326  1
  Fe  Fe7  1  0.666667  0.833333  0.448326  1
  Pd  Pd8  1  0.332768  0.655542  0.550689  1
  Pd  Pd9  1  0.822774  0.655542  0.550689  1
  Pd  Pd10  1  0.827461  0.154921  0.547582  1
  Fe  Fe11  1  0.329977  0.159954  0.554072  1
  Pt  Pt12  1  1.007472  1.006960  0.652900  1
  Pt  Pt13  1  0.499488  1.006960  0.652900  1
  Pt  Pt14  1  0.504056  0.508113  0.662581  1
  Pt  Pt15  1  1.000953  0.501906  0.656877  1
  O  O16  1  0.481667  0.463334  0.755151  1
  H  H17  1  0.576754  0.653507  0.772181  1
