# generated using pymatgen
data_Ge3HPd9Pt4O
_symmetry_space_group_name_H-M   'P 1'
_cell_length_a   5.56073070
_cell_length_b   5.56073070
_cell_length_c   21.81047641
_cell_angle_alpha   90.00000000
_cell_angle_beta   90.00000000
_cell_angle_gamma   120.00000000
_symmetry_Int_Tables_number   1
_chemical_formula_structural   Ge3HPd9Pt4O
_chemical_formula_sum   'Ge3 Pd9 H1 Pt4 O1'
_cell_volume   584.06275237
_cell_formula_units_Z   1
loop_
 _symmetry_equiv_pos_site_id
 _symmetry_equiv_pos_as_xyz
  1  'x, y, z'
loop_
 _atom_site_type_symbol
 _atom_site_label
 _atom_site_symmetry_multiplicity
 _atom_site_fract_x
 _atom_site_fract_y
 _atom_site_fract_z
 _atom_site_occupancy
  Pd  Pd0  1  0.000000  0.000000  0.343871  1
  Pd  Pd1  1  0.500000  1.000000  0.343871  1
  Pd  Pd2  1  0.500000  0.500000  0.343871  1
  Ge  Ge3  1  -0.000000  0.500000  0.343871  1
  Pd  Pd4  1  0.666667  0.333333  0.447957  1
  Pd  Pd5  1  0.166667  0.333333  0.447957  1
  Pd  Pd6  1  0.166667  0.833333  0.447957  1
  Ge  Ge7  1  0.666667  0.833333  0.447957  1
  Pd  Pd8  1  0.319552  0.633017  0.555067  1
  Pd  Pd9  1  0.813465  0.633017  0.555067  1
  Pd  Pd10  1  0.817256  0.134513  0.547725  1
  Ge  Ge11  1  0.319350  0.138700  0.558618  1
  Pt  Pt12  1  0.006315  1.007702  0.657148  1
  Pt  Pt13  1  0.501387  1.007702  0.657148  1
  Pt  Pt14  1  0.507347  0.514695  0.668087  1
  Pt  Pt15  1  0.001263  0.502525  0.661829  1
  O  O16  1  0.480103  0.460207  0.759311  1
  H  H17  1  0.574190  0.648381  0.776489  1
