# generated using pymatgen
data_Ga3HPd9Pt4O
_symmetry_space_group_name_H-M   'P 1'
_cell_length_a   5.54814856
_cell_length_b   5.54814856
_cell_length_c   21.79506649
_cell_angle_alpha   90.00000000
_cell_angle_beta   90.00000000
_cell_angle_gamma   120.00000000
_symmetry_Int_Tables_number   1
_chemical_formula_structural   Ga3HPd9Pt4O
_chemical_formula_sum   'Ga3 Pd9 H1 Pt4 O1'
_cell_volume   581.01185312
_cell_formula_units_Z   1
loop_
 _symmetry_equiv_pos_site_id
 _symmetry_equiv_pos_as_xyz
  1  'x, y, z'
loop_
 _atom_site_type_symbol
 _atom_site_label
 _atom_site_symmetry_multiplicity
 _atom_site_fract_x
 _atom_site_fract_y
 _atom_site_fract_z
 _atom_site_occupancy
  Pd  Pd0  1  0.000000  0.000000  0.344115  1
  Pd  Pd1  1  0.500000  0.000000  0.344115  1
  Pd  Pd2  1  0.500000  0.500000  0.344115  1
  Ga  Ga3  1  0.000000  0.500000  0.344115  1
  Pd  Pd4  1  0.666667  0.333333  0.448038  1
  Pd  Pd5  1  0.166667  0.333333  0.448038  1
  Pd  Pd6  1  0.166667  0.833333  0.448038  1
  Ga  Ga7  1  0.666667  0.833333  0.448038  1
  Pd  Pd8  1  0.327670  0.647801  0.553266  1
  Pd  Pd9  1  0.820131  0.647801  0.553266  1
  Pd  Pd10  1  0.824410  0.148821  0.549526  1
  Ga  Ga11  1  0.326730  0.153461  0.554254  1
  Pt  Pt12  1  0.004912  0.005323  0.656609  1
  Pt  Pt13  1  0.500411  0.005323  0.656609  1
  Pt  Pt14  1  0.503703  0.507406  0.664252  1
  Pt  Pt15  1  0.000715  0.501430  0.658565  1
  O  O16  1  0.476196  0.452391  0.756170  1
  H  H17  1  0.570254  0.640507  0.773513  1
