# generated using pymatgen
data_HIr3Pd9Pt4O
_symmetry_space_group_name_H-M   'P 1'
_cell_length_a   5.53630624
_cell_length_b   5.53630624
_cell_length_c   21.78056267
_cell_angle_alpha   90.00000000
_cell_angle_beta   90.00000000
_cell_angle_gamma   120.00000000
_symmetry_Int_Tables_number   1
_chemical_formula_structural   HIr3Pd9Pt4O
_chemical_formula_sum   'Pd9 Ir3 H1 Pt4 O1'
_cell_volume   578.14920944
_cell_formula_units_Z   1
loop_
 _symmetry_equiv_pos_site_id
 _symmetry_equiv_pos_as_xyz
  1  'x, y, z'
loop_
 _atom_site_type_symbol
 _atom_site_label
 _atom_site_symmetry_multiplicity
 _atom_site_fract_x
 _atom_site_fract_y
 _atom_site_fract_z
 _atom_site_occupancy
  Pd  Pd0  1  0.000000  0.000000  0.344344  1
  Pd  Pd1  1  0.500000  0.000000  0.344344  1
  Pd  Pd2  1  0.500000  0.500000  0.344344  1
  Ir  Ir3  1  -0.000000  0.500000  0.344344  1
  Pd  Pd4  1  0.666667  0.333333  0.448115  1
  Pd  Pd5  1  0.166667  0.333333  0.448115  1
  Pd  Pd6  1  0.166667  0.833333  0.448115  1
  Ir  Ir7  1  0.666667  0.833333  0.448115  1
  Pd  Pd8  1  0.337706  0.668489  0.552252  1
  Pd  Pd9  1  0.830783  0.668489  0.552252  1
  Pd  Pd10  1  0.834081  0.168161  0.550045  1
  Ir  Ir11  1  0.335550  0.171100  0.552445  1
  Pt  Pt12  1  0.009338  0.013102  0.656169  1
  Pt  Pt13  1  0.503764  1.013102  0.656169  1
  Pt  Pt14  1  0.506368  0.512735  0.665132  1
  Pt  Pt15  1  0.004758  0.509516  0.657693  1
  O  O16  1  0.500864  0.501729  0.757580  1
  H  H17  1  0.597788  0.695575  0.771659  1
