# generated using pymatgen
data_La3HPd9Pt4O
_symmetry_space_group_name_H-M   'P 1'
_cell_length_a   5.98369945
_cell_length_b   5.98369945
_cell_length_c   22.32850521
_cell_angle_alpha   90.00000000
_cell_angle_beta   90.00000000
_cell_angle_gamma   120.00000000
_symmetry_Int_Tables_number   1
_chemical_formula_structural   La3HPd9Pt4O
_chemical_formula_sum   'La3 Pd9 H1 Pt4 O1'
_cell_volume   692.35658061
_cell_formula_units_Z   1
loop_
 _symmetry_equiv_pos_site_id
 _symmetry_equiv_pos_as_xyz
  1  'x, y, z'
loop_
 _atom_site_type_symbol
 _atom_site_label
 _atom_site_symmetry_multiplicity
 _atom_site_fract_x
 _atom_site_fract_y
 _atom_site_fract_z
 _atom_site_occupancy
  Pd  Pd0  1  0.000000  0.000000  0.335894  1
  Pd  Pd1  1  0.500000  0.000000  0.335894  1
  Pd  Pd2  1  0.500000  0.500000  0.335894  1
  La  La3  1  1.000000  0.500000  0.335894  1
  Pd  Pd4  1  0.666667  0.333333  0.445298  1
  Pd  Pd5  1  0.166667  0.333333  0.445298  1
  Pd  Pd6  1  0.166667  0.833333  0.445298  1
  La  La7  1  0.666667  0.833333  0.445298  1
  Pd  Pd8  1  0.327641  0.657406  0.557930  1
  Pd  Pd9  1  0.829765  0.657406  0.557930  1
  Pd  Pd10  1  0.837060  0.174120  0.553294  1
  La  La11  1  0.330619  0.161238  0.560217  1
  Pt  Pt12  1  -0.007972  1.009125  0.660785  1
  Pt  Pt13  1  0.517097  1.009125  0.660785  1
  Pt  Pt14  1  0.519363  0.538726  0.665478  1
  Pt  Pt15  1  0.003858  0.507716  0.657292  1
  O  O16  1  0.476457  0.452914  0.752961  1
  H  H17  1  0.560708  0.621415  0.772924  1
