# generated using pymatgen
data_Mn3HPd9Pt4O
_symmetry_space_group_name_H-M   'P 1'
_cell_length_a   5.54700649
_cell_length_b   5.54700649
_cell_length_c   21.79366774
_cell_angle_alpha   90.00000000
_cell_angle_beta   90.00000000
_cell_angle_gamma   120.00000000
_symmetry_Int_Tables_number   1
_chemical_formula_structural   Mn3HPd9Pt4O
_chemical_formula_sum   'Mn3 Pd9 H1 Pt4 O1'
_cell_volume   580.73540583
_cell_formula_units_Z   1
loop_
 _symmetry_equiv_pos_site_id
 _symmetry_equiv_pos_as_xyz
  1  'x, y, z'
loop_
 _atom_site_type_symbol
 _atom_site_label
 _atom_site_symmetry_multiplicity
 _atom_site_fract_x
 _atom_site_fract_y
 _atom_site_fract_z
 _atom_site_occupancy
  Pd  Pd0  1  0.000000  0.000000  0.344137  1
  Pd  Pd1  1  0.500000  0.000000  0.344137  1
  Pd  Pd2  1  0.500000  0.500000  0.344137  1
  Mn  Mn3  1  0.000000  0.500000  0.344137  1
  Pd  Pd4  1  0.666667  0.333333  0.448046  1
  Pd  Pd5  1  0.166667  0.333333  0.448046  1
  Pd  Pd6  1  0.166667  0.833333  0.448046  1
  Mn  Mn7  1  0.666667  0.833333  0.448046  1
  Pd  Pd8  1  0.336899  0.663041  0.549685  1
  Pd  Pd9  1  0.826142  0.663041  0.549685  1
  Pd  Pd10  1  0.829836  0.159673  0.548080  1
  Mn  Mn11  1  0.332782  0.165564  0.554189  1
  Pt  Pt12  1  0.006094  0.009349  0.655369  1
  Pt  Pt13  1  0.503256  0.009349  0.655369  1
  Pt  Pt14  1  0.506595  0.513189  0.661282  1
  Pt  Pt15  1  1.003711  0.507421  0.654690  1
  O  O16  1  0.474834  0.449667  0.753328  1
  H  H17  1  0.567801  0.635603  0.771771  1
