# generated using pymatgen
data_Ni3HPd9Pt4O
_symmetry_space_group_name_H-M   'P 1'
_cell_length_a   5.45435726
_cell_length_b   5.45435726
_cell_length_c   21.68019609
_cell_angle_alpha   90.00000000
_cell_angle_beta   90.00000000
_cell_angle_gamma   120.00000000
_symmetry_Int_Tables_number   1
_chemical_formula_structural   Ni3HPd9Pt4O
_chemical_formula_sum   'Ni3 Pd9 H1 Pt4 O1'
_cell_volume   558.57436410
_cell_formula_units_Z   1
loop_
 _symmetry_equiv_pos_site_id
 _symmetry_equiv_pos_as_xyz
  1  'x, y, z'
loop_
 _atom_site_type_symbol
 _atom_site_label
 _atom_site_symmetry_multiplicity
 _atom_site_fract_x
 _atom_site_fract_y
 _atom_site_fract_z
 _atom_site_occupancy
  Pd  Pd0  1  0.000000  0.000000  0.345938  1
  Pd  Pd1  1  0.500000  0.000000  0.345938  1
  Pd  Pd2  1  0.500000  0.500000  0.345938  1
  Ni  Ni3  1  0.000000  0.500000  0.345938  1
  Pd  Pd4  1  0.666667  0.333333  0.448646  1
  Pd  Pd5  1  0.166667  0.333333  0.448646  1
  Pd  Pd6  1  0.166667  0.833333  0.448646  1
  Ni  Ni7  1  0.666667  0.833333  0.448646  1
  Pd  Pd8  1  0.334120  0.660695  0.552769  1
  Pd  Pd9  1  0.826575  0.660695  0.552769  1
  Pd  Pd10  1  0.830295  0.160590  0.549869  1
  Ni  Ni11  1  0.332666  0.165332  0.553698  1
  Pt  Pt12  1  0.005947  1.006630  0.656189  1
  Pt  Pt13  1  0.500683  1.006630  0.656189  1
  Pt  Pt14  1  0.503272  0.506544  0.666632  1
  Pt  Pt15  1  1.001745  0.503490  0.659691  1
  O  O16  1  0.488793  0.477586  0.759304  1
  H  H17  1  0.586457  0.672914  0.774493  1
