# generated using pymatgen
data_HOs3Pd9Pt4O
_symmetry_space_group_name_H-M   'P 1'
_cell_length_a   5.52346130
_cell_length_b   5.52346130
_cell_length_c   21.76483090
_cell_angle_alpha   90.00000000
_cell_angle_beta   90.00000000
_cell_angle_gamma   120.00000000
_symmetry_Int_Tables_number   1
_chemical_formula_structural   HOs3Pd9Pt4O
_chemical_formula_sum   'Pd9 Os3 H1 Pt4 O1'
_cell_volume   575.05390917
_cell_formula_units_Z   1
loop_
 _symmetry_equiv_pos_site_id
 _symmetry_equiv_pos_as_xyz
  1  'x, y, z'
loop_
 _atom_site_type_symbol
 _atom_site_label
 _atom_site_symmetry_multiplicity
 _atom_site_fract_x
 _atom_site_fract_y
 _atom_site_fract_z
 _atom_site_occupancy
  Pd  Pd0  1  0.000000  0.000000  0.344593  1
  Pd  Pd1  1  0.500000  0.000000  0.344593  1
  Pd  Pd2  1  0.500000  0.500000  0.344593  1
  Os  Os3  1  0.000000  0.500000  0.344593  1
  Pd  Pd4  1  0.666667  0.333333  0.448198  1
  Pd  Pd5  1  0.166667  0.333333  0.448198  1
  Pd  Pd6  1  0.166667  0.833333  0.448198  1
  Os  Os7  1  0.666667  0.833333  0.448198  1
  Pd  Pd8  1  0.337106  0.665835  0.550967  1
  Pd  Pd9  1  0.828729  0.665835  0.550967  1
  Pd  Pd10  1  0.831425  0.162849  0.548931  1
  Os  Os11  1  0.334830  0.169659  0.557370  1
  Pt  Pt12  1  0.003720  0.002222  0.656082  1
  Pt  Pt13  1  0.498502  0.002222  0.656082  1
  Pt  Pt14  1  0.500809  0.501619  0.664322  1
  Pt  Pt15  1  -0.000858  0.498283  0.658080  1
  O  O16  1  0.506559  0.513119  0.757841  1
  H  H17  1  0.604293  0.708585  0.771005  1
