# generated using pymatgen
data_HPd12Pt4O
_symmetry_space_group_name_H-M   'P 1'
_cell_length_a   5.57245595
_cell_length_b   5.57245595
_cell_length_c   21.82483685
_cell_angle_alpha   90.00000000
_cell_angle_beta   90.00000000
_cell_angle_gamma   120.00000000
_symmetry_Int_Tables_number   1
_chemical_formula_structural   HPd12Pt4O
_chemical_formula_sum   'Pd12 H1 Pt4 O1'
_cell_volume   586.91461688
_cell_formula_units_Z   1
loop_
 _symmetry_equiv_pos_site_id
 _symmetry_equiv_pos_as_xyz
  1  'x, y, z'
loop_
 _atom_site_type_symbol
 _atom_site_label
 _atom_site_symmetry_multiplicity
 _atom_site_fract_x
 _atom_site_fract_y
 _atom_site_fract_z
 _atom_site_occupancy
  Pd  Pd0  1  0.000000  0.000000  0.343645  1
  Pd  Pd1  1  0.500000  0.000000  0.343645  1
  Pd  Pd2  1  0.500000  0.500000  0.343645  1
  Pd  Pd3  1  0.000000  0.500000  0.343645  1
  Pd  Pd4  1  0.666667  0.333333  0.447882  1
  Pd  Pd5  1  0.166667  0.333333  0.447882  1
  Pd  Pd6  1  0.166667  0.833333  0.447882  1
  Pd  Pd7  1  0.666667  0.833333  0.447882  1
  Pd  Pd8  1  0.333667  0.662831  0.553891  1
  Pd  Pd9  1  0.829164  0.662831  0.553891  1
  Pd  Pd10  1  0.832419  0.164839  0.551499  1
  Pd  Pd11  1  0.333509  0.167018  0.553626  1
  Pt  Pt12  1  -0.001721  -0.003394  0.658013  1
  Pt  Pt13  1  0.498327  -0.003394  0.658013  1
  Pt  Pt14  1  0.498781  0.497561  0.666681  1
  Pt  Pt15  1  0.998226  0.496452  0.658262  1
  O  O16  1  0.485337  0.470673  0.758238  1
  H  H17  1  0.580803  0.661606  0.773445  1
