# generated using pymatgen
data_HPd9Pt7O
_symmetry_space_group_name_H-M   'P 1'
_cell_length_a   5.57728190
_cell_length_b   5.57728190
_cell_length_c   21.83074740
_cell_angle_alpha   90.00000000
_cell_angle_beta   90.00000000
_cell_angle_gamma   120.00000000
_symmetry_Int_Tables_number   1
_chemical_formula_structural   HPd9Pt7O
_chemical_formula_sum   'Pd9 H1 Pt7 O1'
_cell_volume   588.09085845
_cell_formula_units_Z   1
loop_
 _symmetry_equiv_pos_site_id
 _symmetry_equiv_pos_as_xyz
  1  'x, y, z'
loop_
 _atom_site_type_symbol
 _atom_site_label
 _atom_site_symmetry_multiplicity
 _atom_site_fract_x
 _atom_site_fract_y
 _atom_site_fract_z
 _atom_site_occupancy
  Pd  Pd0  1  0.000000  0.000000  0.343552  1
  Pd  Pd1  1  0.500000  1.000000  0.343552  1
  Pd  Pd2  1  0.500000  0.500000  0.343552  1
  Pt  Pt3  1  -0.000000  0.500000  0.343552  1
  Pd  Pd4  1  0.666667  0.333333  0.447851  1
  Pd  Pd5  1  0.166667  0.333333  0.447851  1
  Pd  Pd6  1  0.166667  0.833333  0.447851  1
  Pt  Pt7  1  0.666667  0.833333  0.447851  1
  Pd  Pd8  1  0.334776  0.665165  0.553788  1
  Pd  Pd9  1  0.830389  0.665165  0.553788  1
  Pd  Pd10  1  0.833188  0.166377  0.551528  1
  Pt  Pt11  1  0.335010  0.170021  0.553534  1
  Pt  Pt12  1  0.001942  1.001864  0.657975  1
  Pt  Pt13  1  0.499922  1.001864  0.657975  1
  Pt  Pt14  1  0.500971  0.501941  0.667257  1
  Pt  Pt15  1  0.000216  0.500433  0.658156  1
  O  O16  1  0.497011  0.494023  0.758986  1
  H  H17  1  0.593584  0.687167  0.772669  1
