# generated using pymatgen
data_HPd9Ru3Pt4O
_symmetry_space_group_name_H-M   'P 1'
_cell_length_a   5.51967529
_cell_length_b   5.51967529
_cell_length_c   21.76019400
_cell_angle_alpha   90.00000000
_cell_angle_beta   90.00000000
_cell_angle_gamma   120.00000000
_symmetry_Int_Tables_number   1
_chemical_formula_structural   HPd9Ru3Pt4O
_chemical_formula_sum   'Pd9 Ru3 H1 Pt4 O1'
_cell_volume   574.14350306
_cell_formula_units_Z   1
loop_
 _symmetry_equiv_pos_site_id
 _symmetry_equiv_pos_as_xyz
  1  'x, y, z'
loop_
 _atom_site_type_symbol
 _atom_site_label
 _atom_site_symmetry_multiplicity
 _atom_site_fract_x
 _atom_site_fract_y
 _atom_site_fract_z
 _atom_site_occupancy
  Pd  Pd0  1  0.000000  0.000000  0.344666  1
  Pd  Pd1  1  0.500000  0.000000  0.344666  1
  Pd  Pd2  1  0.500000  0.500000  0.344666  1
  Ru  Ru3  1  -0.000000  0.500000  0.344666  1
  Pd  Pd4  1  0.666667  0.333333  0.448222  1
  Pd  Pd5  1  0.166667  0.333333  0.448222  1
  Pd  Pd6  1  0.166667  0.833333  0.448222  1
  Ru  Ru7  1  0.666667  0.833333  0.448222  1
  Pd  Pd8  1  0.335709  0.663467  0.551759  1
  Pd  Pd9  1  0.827758  0.663467  0.551759  1
  Pd  Pd10  1  0.831596  0.163192  0.549274  1
  Ru  Ru11  1  0.332556  0.165111  0.554339  1
  Pt  Pt12  1  0.005390  0.005769  0.656035  1
  Pt  Pt13  1  0.500380  0.005769  0.656035  1
  Pt  Pt14  1  0.503110  0.506221  0.664829  1
  Pt  Pt15  1  0.000898  0.501797  0.657888  1
  O  O16  1  0.495814  0.491627  0.757684  1
  H  H17  1  0.592793  0.685586  0.772142  1
