# generated using pymatgen
data_Re3HPd9Pt4O
_symmetry_space_group_name_H-M   'P 1'
_cell_length_a   5.55398809
_cell_length_b   5.55398809
_cell_length_c   21.80221843
_cell_angle_alpha   90.00000000
_cell_angle_beta   90.00000000
_cell_angle_gamma   120.00000000
_symmetry_Int_Tables_number   1
_chemical_formula_structural   Re3HPd9Pt4O
_chemical_formula_sum   'Re3 Pd9 H1 Pt4 O1'
_cell_volume   582.42660761
_cell_formula_units_Z   1
loop_
 _symmetry_equiv_pos_site_id
 _symmetry_equiv_pos_as_xyz
  1  'x, y, z'
loop_
 _atom_site_type_symbol
 _atom_site_label
 _atom_site_symmetry_multiplicity
 _atom_site_fract_x
 _atom_site_fract_y
 _atom_site_fract_z
 _atom_site_occupancy
  Pd  Pd0  1  0.000000  0.000000  0.344002  1
  Pd  Pd1  1  0.500000  0.000000  0.344002  1
  Pd  Pd2  1  0.500000  0.500000  0.344002  1
  Re  Re3  1  0.000000  0.500000  0.344002  1
  Pd  Pd4  1  0.666667  0.333333  0.448001  1
  Pd  Pd5  1  0.166667  0.333333  0.448001  1
  Pd  Pd6  1  0.166667  0.833333  0.448001  1
  Re  Re7  1  0.666667  0.833333  0.448001  1
  Pd  Pd8  1  0.337183  0.663855  0.550228  1
  Pd  Pd9  1  0.826673  0.663855  0.550228  1
  Pd  Pd10  1  0.830259  0.160517  0.548300  1
  Re  Re11  1  0.334676  0.169351  0.561286  1
  Pt  Pt12  1  1.002067  0.999104  0.655669  1
  Pt  Pt13  1  0.497038  0.999104  0.655669  1
  Pt  Pt14  1  0.500529  0.501058  0.662566  1
  Pt  Pt15  1  0.997550  0.495100  0.659207  1
  O  O16  1  0.503374  0.506748  0.756651  1
  H  H17  1  0.599655  0.699311  0.770993  1
