# generated using pymatgen
data_Sc3HPd9Pt4O
_symmetry_space_group_name_H-M   'P 1'
_cell_length_a   5.66933693
_cell_length_b   5.66933693
_cell_length_c   21.94349133
_cell_angle_alpha   90.00000000
_cell_angle_beta   90.00000000
_cell_angle_gamma   120.00000000
_symmetry_Int_Tables_number   1
_chemical_formula_structural   Sc3HPd9Pt4O
_chemical_formula_sum   'Sc3 Pd9 H1 Pt4 O1'
_cell_volume   610.80262529
_cell_formula_units_Z   1
loop_
 _symmetry_equiv_pos_site_id
 _symmetry_equiv_pos_as_xyz
  1  'x, y, z'
loop_
 _atom_site_type_symbol
 _atom_site_label
 _atom_site_symmetry_multiplicity
 _atom_site_fract_x
 _atom_site_fract_y
 _atom_site_fract_z
 _atom_site_occupancy
  Pd  Pd0  1  0.000000  0.000000  0.341787  1
  Pd  Pd1  1  0.500000  0.000000  0.341787  1
  Pd  Pd2  1  0.500000  0.500000  0.341787  1
  Sc  Sc3  1  0.000000  0.500000  0.341787  1
  Pd  Pd4  1  0.666667  0.333333  0.447262  1
  Pd  Pd5  1  0.166667  0.333333  0.447262  1
  Pd  Pd6  1  0.166667  0.833333  0.447262  1
  Sc  Sc7  1  0.666667  0.833333  0.447262  1
  Pd  Pd8  1  0.328711  0.655368  0.554082  1
  Pd  Pd9  1  0.826658  0.655368  0.554082  1
  Pd  Pd10  1  0.829763  0.159527  0.552130  1
  Sc  Sc11  1  0.330072  0.160143  0.557354  1
  Pt  Pt12  1  0.009062  1.014961  0.658357  1
  Pt  Pt13  1  0.505899  1.014961  0.658357  1
  Pt  Pt14  1  0.511373  0.522746  0.663028  1
  Pt  Pt15  1  0.006336  0.512672  0.658296  1
  O  O16  1  0.472958  0.445915  0.753952  1
  H  H17  1  0.562692  0.625385  0.773513  1
