# generated using pymatgen
data_Sb3HPd9Pt4O
_symmetry_space_group_name_H-M   'P 1'
_cell_length_a   5.73299671
_cell_length_b   5.73299671
_cell_length_c   22.02145831
_cell_angle_alpha   90.00000000
_cell_angle_beta   90.00000000
_cell_angle_gamma   120.00000000
_symmetry_Int_Tables_number   1
_chemical_formula_structural   Sb3HPd9Pt4O
_chemical_formula_sum   'Sb3 Pd9 H1 Pt4 O1'
_cell_volume   626.81602636
_cell_formula_units_Z   1
loop_
 _symmetry_equiv_pos_site_id
 _symmetry_equiv_pos_as_xyz
  1  'x, y, z'
loop_
 _atom_site_type_symbol
 _atom_site_label
 _atom_site_symmetry_multiplicity
 _atom_site_fract_x
 _atom_site_fract_y
 _atom_site_fract_z
 _atom_site_occupancy
  Pd  Pd0  1  0.000000  0.000000  0.340577  1
  Pd  Pd1  1  0.500000  0.000000  0.340577  1
  Pd  Pd2  1  0.500000  0.500000  0.340577  1
  Sb  Sb3  1  -0.000000  0.500000  0.340577  1
  Pd  Pd4  1  0.666667  0.333333  0.446859  1
  Pd  Pd5  1  0.166667  0.333333  0.446859  1
  Pd  Pd6  1  0.166667  0.833333  0.446859  1
  Sb  Sb7  1  0.666667  0.833333  0.446859  1
  Pd  Pd8  1  0.331376  0.655941  0.553967  1
  Pd  Pd9  1  0.824565  0.655941  0.553967  1
  Pd  Pd10  1  0.831395  0.162790  0.550620  1
  Sb  Sb11  1  0.329851  0.159702  0.562071  1
  Pt  Pt12  1  0.001907  0.007494  0.659289  1
  Pt  Pt13  1  0.505586  0.007494  0.659289  1
  Pt  Pt14  1  0.511275  0.522550  0.666166  1
  Pt  Pt15  1  0.003137  0.506274  0.659096  1
  O  O16  1  0.474896  0.449792  0.755951  1
  H  H17  1  0.563968  0.627935  0.775142  1
