# generated using pymatgen
data_Sn3HPd9Pt4O
_symmetry_space_group_name_H-M   'P 1'
_cell_length_a   5.71249584
_cell_length_b   5.71249584
_cell_length_c   21.99634998
_cell_angle_alpha   90.00000000
_cell_angle_beta   90.00000000
_cell_angle_gamma   120.00000000
_symmetry_Int_Tables_number   1
_chemical_formula_structural   Sn3HPd9Pt4O
_chemical_formula_sum   'Sn3 Pd9 H1 Pt4 O1'
_cell_volume   621.63154738
_cell_formula_units_Z   1
loop_
 _symmetry_equiv_pos_site_id
 _symmetry_equiv_pos_as_xyz
  1  'x, y, z'
loop_
 _atom_site_type_symbol
 _atom_site_label
 _atom_site_symmetry_multiplicity
 _atom_site_fract_x
 _atom_site_fract_y
 _atom_site_fract_z
 _atom_site_occupancy
  Pd  Pd0  1  0.000000  0.000000  0.340966  1
  Pd  Pd1  1  0.500000  0.000000  0.340966  1
  Pd  Pd2  1  0.500000  0.500000  0.340966  1
  Sn  Sn3  1  0.000000  0.500000  0.340966  1
  Pd  Pd4  1  0.666667  0.333333  0.446989  1
  Pd  Pd5  1  0.166667  0.333333  0.446989  1
  Pd  Pd6  1  0.166667  0.833333  0.446989  1
  Sn  Sn7  1  0.666667  0.833333  0.446989  1
  Pd  Pd8  1  0.330312  0.655087  0.553752  1
  Pd  Pd9  1  0.824775  0.655087  0.553752  1
  Pd  Pd10  1  0.830446  0.160893  0.550772  1
  Sn  Sn11  1  0.329137  0.158274  0.555917  1
  Pt  Pt12  1  1.002405  0.005318  0.658142  1
  Pt  Pt13  1  0.502913  0.005318  0.658142  1
  Pt  Pt14  1  0.507140  0.514280  0.663883  1
  Pt  Pt15  1  1.001507  0.503014  0.658074  1
  O  O16  1  0.475749  0.451498  0.754233  1
  H  H17  1  0.566240  0.632480  0.772340  1
