# generated using pymatgen
data_Ta3HPd9Pt4O
_symmetry_space_group_name_H-M   'P 1'
_cell_length_a   5.61806574
_cell_length_b   5.61806574
_cell_length_c   21.88069720
_cell_angle_alpha   90.00000000
_cell_angle_beta   90.00000000
_cell_angle_gamma   120.00000000
_symmetry_Int_Tables_number   1
_chemical_formula_structural   Ta3HPd9Pt4O
_chemical_formula_sum   'Ta3 Pd9 H1 Pt4 O1'
_cell_volume   598.08845769
_cell_formula_units_Z   1
loop_
 _symmetry_equiv_pos_site_id
 _symmetry_equiv_pos_as_xyz
  1  'x, y, z'
loop_
 _atom_site_type_symbol
 _atom_site_label
 _atom_site_symmetry_multiplicity
 _atom_site_fract_x
 _atom_site_fract_y
 _atom_site_fract_z
 _atom_site_occupancy
  Pd  Pd0  1  0.000000  0.000000  0.342768  1
  Pd  Pd1  1  0.500000  0.000000  0.342768  1
  Pd  Pd2  1  0.500000  0.500000  0.342768  1
  Ta  Ta3  1  -0.000000  0.500000  0.342768  1
  Pd  Pd4  1  0.666667  0.333333  0.447589  1
  Pd  Pd5  1  0.166667  0.333333  0.447589  1
  Pd  Pd6  1  0.166667  0.833333  0.447589  1
  Ta  Ta7  1  0.666667  0.833333  0.447589  1
  Pd  Pd8  1  0.336301  0.662812  0.550359  1
  Pd  Pd9  1  0.826511  0.662812  0.550359  1
  Pd  Pd10  1  0.832185  0.164369  0.548386  1
  Ta  Ta11  1  0.336312  0.172623  0.565036  1
  Pt  Pt12  1  0.004914  0.008453  0.656082  1
  Pt  Pt13  1  0.503539  0.008453  0.656082  1
  Pt  Pt14  1  0.507374  0.514749  0.660605  1
  Pt  Pt15  1  0.003148  0.506296  0.659370  1
  O  O16  1  0.473685  0.447369  0.753461  1
  H  H17  1  0.565130  0.630260  0.772158  1
