# generated using pymatgen
data_Ti3HPd9Pt4O
_symmetry_space_group_name_H-M   'P 1'
_cell_length_a   5.54894331
_cell_length_b   5.54894331
_cell_length_c   21.79603986
_cell_angle_alpha   90.00000000
_cell_angle_beta   90.00000000
_cell_angle_gamma   120.00000000
_symmetry_Int_Tables_number   1
_chemical_formula_structural   Ti3HPd9Pt4O
_chemical_formula_sum   'Ti3 Pd9 H1 Pt4 O1'
_cell_volume   581.20427568
_cell_formula_units_Z   1
loop_
 _symmetry_equiv_pos_site_id
 _symmetry_equiv_pos_as_xyz
  1  'x, y, z'
loop_
 _atom_site_type_symbol
 _atom_site_label
 _atom_site_symmetry_multiplicity
 _atom_site_fract_x
 _atom_site_fract_y
 _atom_site_fract_z
 _atom_site_occupancy
  Pd  Pd0  1  0.000000  0.000000  0.344099  1
  Pd  Pd1  1  0.500000  0.000000  0.344099  1
  Pd  Pd2  1  0.500000  0.500000  0.344099  1
  Ti  Ti3  1  1.000000  0.500000  0.344099  1
  Pd  Pd4  1  0.666667  0.333333  0.448033  1
  Pd  Pd5  1  0.166667  0.333333  0.448033  1
  Pd  Pd6  1  0.166667  0.833333  0.448033  1
  Ti  Ti7  1  0.666667  0.833333  0.448033  1
  Pd  Pd8  1  0.333973  0.658631  0.551802  1
  Pd  Pd9  1  0.824659  0.658631  0.551802  1
  Pd  Pd10  1  0.830564  0.161127  0.549275  1
  Ti  Ti11  1  0.333058  0.166116  0.561608  1
  Pt  Pt12  1  0.009778  1.014239  0.656535  1
  Pt  Pt13  1  0.504461  0.014239  0.656535  1
  Pt  Pt14  1  0.508995  0.517991  0.662379  1
  Pt  Pt15  1  0.005782  0.511564  0.659726  1
  O  O16  1  0.475759  0.451518  0.755264  1
  H  H17  1  0.568468  0.636935  0.773878  1
