# generated using pymatgen
data_V3HPd9Pt4O
_symmetry_space_group_name_H-M   'P 1'
_cell_length_a   5.51155350
_cell_length_b   5.51155350
_cell_length_c   21.75024689
_cell_angle_alpha   90.00000000
_cell_angle_beta   90.00000000
_cell_angle_gamma   120.00000000
_symmetry_Int_Tables_number   1
_chemical_formula_structural   V3HPd9Pt4O
_chemical_formula_sum   'V3 Pd9 H1 Pt4 O1'
_cell_volume   572.19344459
_cell_formula_units_Z   1
loop_
 _symmetry_equiv_pos_site_id
 _symmetry_equiv_pos_as_xyz
  1  'x, y, z'
loop_
 _atom_site_type_symbol
 _atom_site_label
 _atom_site_symmetry_multiplicity
 _atom_site_fract_x
 _atom_site_fract_y
 _atom_site_fract_z
 _atom_site_occupancy
  Pd  Pd0  1  0.000000  0.000000  0.344824  1
  Pd  Pd1  1  0.500000  0.000000  0.344824  1
  Pd  Pd2  1  0.500000  0.500000  0.344824  1
  V  V3  1  0.000000  0.500000  0.344824  1
  Pd  Pd4  1  0.666667  0.333333  0.448275  1
  Pd  Pd5  1  0.166667  0.333333  0.448275  1
  Pd  Pd6  1  0.166667  0.833333  0.448275  1
  V  V7  1  0.666667  0.833333  0.448275  1
  Pd  Pd8  1  0.335559  0.660030  0.550573  1
  Pd  Pd9  1  0.824472  0.660030  0.550573  1
  Pd  Pd10  1  0.829883  0.159765  0.547904  1
  V  V11  1  0.338669  0.177338  0.564041  1
  Pt  Pt12  1  1.011111  0.014813  0.654952  1
  Pt  Pt13  1  0.503701  0.014813  0.654952  1
  Pt  Pt14  1  0.509587  0.519174  0.661887  1
  Pt  Pt15  1  1.004777  0.509555  0.659850  1
  O  O16  1  0.490235  0.480471  0.755681  1
  H  H17  1  0.585410  0.670820  0.772392  1
