# generated using pymatgen
data_Y3HPd9Pt4O
_symmetry_space_group_name_H-M   'P 1'
_cell_length_a   5.83803700
_cell_length_b   5.83803700
_cell_length_c   22.15010588
_cell_angle_alpha   90.00000000
_cell_angle_beta   90.00000000
_cell_angle_gamma   120.00000000
_symmetry_Int_Tables_number   1
_chemical_formula_structural   Y3HPd9Pt4O
_chemical_formula_sum   'Y3 Pd9 H1 Pt4 O1'
_cell_volume   653.79278638
_cell_formula_units_Z   1
loop_
 _symmetry_equiv_pos_site_id
 _symmetry_equiv_pos_as_xyz
  1  'x, y, z'
loop_
 _atom_site_type_symbol
 _atom_site_label
 _atom_site_symmetry_multiplicity
 _atom_site_fract_x
 _atom_site_fract_y
 _atom_site_fract_z
 _atom_site_occupancy
  Pd  Pd0  1  0.000000  0.000000  0.338599  1
  Pd  Pd1  1  0.500000  0.000000  0.338599  1
  Pd  Pd2  1  0.500000  0.500000  0.338599  1
  Y  Y3  1  0.000000  0.500000  0.338599  1
  Pd  Pd4  1  0.666667  0.333333  0.446200  1
  Pd  Pd5  1  0.166667  0.333333  0.446200  1
  Pd  Pd6  1  0.166667  0.833333  0.446200  1
  Y  Y7  1  0.666667  0.833333  0.446200  1
  Pd  Pd8  1  0.327478  0.655796  0.556156  1
  Pd  Pd9  1  0.828318  0.655796  0.556156  1
  Pd  Pd10  1  0.833184  0.166367  0.554229  1
  Y  Y11  1  0.330189  0.160377  0.557361  1
  Pt  Pt12  1  0.002883  0.011314  0.660290  1
  Pt  Pt13  1  0.508431  0.011314  0.660290  1
  Pt  Pt14  1  0.514628  0.529256  0.664025  1
  Pt  Pt15  1  0.007310  0.514619  0.657999  1
  O  O16  1  0.473839  0.447679  0.753139  1
  H  H17  1  0.560357  0.620713  0.773122  1
