# generated using pymatgen
data_Ag3HPt13O
_symmetry_space_group_name_H-M   'P 1'
_cell_length_a   5.65288441
_cell_length_b   5.65288441
_cell_length_c   21.92334119
_cell_angle_alpha   90.00000000
_cell_angle_beta   90.00000000
_cell_angle_gamma   120.00000000
_symmetry_Int_Tables_number   1
_chemical_formula_structural   Ag3HPt13O
_chemical_formula_sum   'Ag3 H1 Pt13 O1'
_cell_volume   606.70501534
_cell_formula_units_Z   1
loop_
 _symmetry_equiv_pos_site_id
 _symmetry_equiv_pos_as_xyz
  1  'x, y, z'
loop_
 _atom_site_type_symbol
 _atom_site_label
 _atom_site_symmetry_multiplicity
 _atom_site_fract_x
 _atom_site_fract_y
 _atom_site_fract_z
 _atom_site_occupancy
  Pt  Pt0  1  0.000000  0.000000  0.342101  1
  Pt  Pt1  1  0.500000  0.000000  0.342101  1
  Pt  Pt2  1  0.500000  0.500000  0.342101  1
  Ag  Ag3  1  0.000000  0.500000  0.342101  1
  Pt  Pt4  1  0.666667  0.333333  0.447367  1
  Pt  Pt5  1  0.166667  0.333333  0.447367  1
  Pt  Pt6  1  0.166667  0.833333  0.447367  1
  Ag  Ag7  1  0.666667  0.833333  0.447367  1
  Pt  Pt8  1  0.333667  0.663837  0.553581  1
  Pt  Pt9  1  0.830170  0.663837  0.553581  1
  Pt  Pt10  1  0.834476  0.168952  0.552047  1
  Ag  Ag11  1  0.333418  0.166836  0.553199  1
  Pt  Pt12  1  -0.001887  0.001823  0.657224  1
  Pt  Pt13  1  0.503709  0.001823  0.657224  1
  Pt  Pt14  1  0.504142  0.508285  0.663131  1
  Pt  Pt15  1  0.002430  0.504860  0.658468  1
  O  O16  1  0.474128  0.448256  0.753609  1
  H  H17  1  0.565346  0.630692  0.772026  1
