# generated using pymatgen
data_Al3HPt13O
_symmetry_space_group_name_H-M   'P 1'
_cell_length_a   5.54000994
_cell_length_b   5.54000994
_cell_length_c   21.78509877
_cell_angle_alpha   90.00000000
_cell_angle_beta   90.00000000
_cell_angle_gamma   120.00000000
_symmetry_Int_Tables_number   1
_chemical_formula_structural   Al3HPt13O
_chemical_formula_sum   'Al3 H1 Pt13 O1'
_cell_volume   579.04358348
_cell_formula_units_Z   1
loop_
 _symmetry_equiv_pos_site_id
 _symmetry_equiv_pos_as_xyz
  1  'x, y, z'
loop_
 _atom_site_type_symbol
 _atom_site_label
 _atom_site_symmetry_multiplicity
 _atom_site_fract_x
 _atom_site_fract_y
 _atom_site_fract_z
 _atom_site_occupancy
  Pt  Pt0  1  0.000000  0.000000  0.344272  1
  Pt  Pt1  1  0.500000  0.000000  0.344272  1
  Pt  Pt2  1  0.500000  0.500000  0.344272  1
  Al  Al3  1  0.000000  0.500000  0.344272  1
  Pt  Pt4  1  0.666667  0.333333  0.448091  1
  Pt  Pt5  1  0.166667  0.333333  0.448091  1
  Pt  Pt6  1  0.166667  0.833333  0.448091  1
  Al  Al7  1  0.666667  0.833333  0.448091  1
  Pt  Pt8  1  0.330631  0.656223  0.551735  1
  Pt  Pt9  1  0.825592  0.656223  0.551735  1
  Pt  Pt10  1  0.828979  0.157958  0.549811  1
  Al  Al11  1  0.330157  0.160314  0.554438  1
  Pt  Pt12  1  0.008349  0.009452  0.655067  1
  Pt  Pt13  1  0.501103  0.009452  0.655067  1
  Pt  Pt14  1  0.505449  0.510899  0.660847  1
  Pt  Pt15  1  0.002659  0.505318  0.660198  1
  O  O16  1  0.471734  0.443468  0.752877  1
  H  H17  1  0.564414  0.628827  0.771749  1
