# generated using pymatgen
data_As3HPt13O
_symmetry_space_group_name_H-M   'P 1'
_cell_length_a   5.67045373
_cell_length_b   5.67045373
_cell_length_c   21.94485913
_cell_angle_alpha   90.00000000
_cell_angle_beta   90.00000000
_cell_angle_gamma   120.00000000
_symmetry_Int_Tables_number   1
_chemical_formula_structural   As3HPt13O
_chemical_formula_sum   'As3 H1 Pt13 O1'
_cell_volume   611.08138082
_cell_formula_units_Z   1
loop_
 _symmetry_equiv_pos_site_id
 _symmetry_equiv_pos_as_xyz
  1  'x, y, z'
loop_
 _atom_site_type_symbol
 _atom_site_label
 _atom_site_symmetry_multiplicity
 _atom_site_fract_x
 _atom_site_fract_y
 _atom_site_fract_z
 _atom_site_occupancy
  Pt  Pt0  1  0.000000  0.000000  0.341766  1
  Pt  Pt1  1  0.500000  0.000000  0.341766  1
  Pt  Pt2  1  0.500000  0.500000  0.341766  1
  As  As3  1  -0.000000  0.500000  0.341766  1
  Pt  Pt4  1  0.666667  0.333333  0.447255  1
  Pt  Pt5  1  0.166667  0.333333  0.447255  1
  Pt  Pt6  1  0.166667  0.833333  0.447255  1
  As  As7  1  0.666667  0.833333  0.447255  1
  Pt  Pt8  1  0.320386  0.642371  0.553389  1
  Pt  Pt9  1  0.821985  0.642371  0.553389  1
  Pt  Pt10  1  0.823077  0.146154  0.548072  1
  As  As11  1  0.351189  0.202377  0.575177  1
  Pt  Pt12  1  0.000544  0.007557  0.657683  1
  Pt  Pt13  1  0.507013  0.007557  0.657683  1
  Pt  Pt14  1  0.513097  0.526194  0.669076  1
  Pt  Pt15  1  0.003630  0.507261  0.659724  1
  O  O16  1  0.480688  0.461375  0.759895  1
  H  H17  1  0.569993  0.639986  0.779776  1
