# generated using pymatgen
data_Cr3HPt13O
_symmetry_space_group_name_H-M   'P 1'
_cell_length_a   5.53272184
_cell_length_b   5.53272184
_cell_length_c   21.77617270
_cell_angle_alpha   90.00000000
_cell_angle_beta   90.00000000
_cell_angle_gamma   120.00000000
_symmetry_Int_Tables_number   1
_chemical_formula_structural   Cr3HPt13O
_chemical_formula_sum   'Cr3 H1 Pt13 O1'
_cell_volume   577.28444705
_cell_formula_units_Z   1
loop_
 _symmetry_equiv_pos_site_id
 _symmetry_equiv_pos_as_xyz
  1  'x, y, z'
loop_
 _atom_site_type_symbol
 _atom_site_label
 _atom_site_symmetry_multiplicity
 _atom_site_fract_x
 _atom_site_fract_y
 _atom_site_fract_z
 _atom_site_occupancy
  Pt  Pt0  1  0.000000  0.000000  0.344413  1
  Pt  Pt1  1  0.500000  1.000000  0.344413  1
  Pt  Pt2  1  0.500000  0.500000  0.344413  1
  Cr  Cr3  1  0.000000  0.500000  0.344413  1
  Pt  Pt4  1  0.666667  0.333333  0.448138  1
  Pt  Pt5  1  0.166667  0.333333  0.448138  1
  Pt  Pt6  1  0.166667  0.833333  0.448138  1
  Cr  Cr7  1  0.666667  0.833333  0.448138  1
  Pt  Pt8  1  0.336528  0.661367  0.549717  1
  Pt  Pt9  1  0.824838  0.661367  0.549717  1
  Pt  Pt10  1  0.830076  0.160152  0.547556  1
  Cr  Cr11  1  0.334345  0.168690  0.557448  1
  Pt  Pt12  1  0.010440  1.009923  0.653199  1
  Pt  Pt13  1  0.499483  1.009923  0.653199  1
  Pt  Pt14  1  0.505959  0.511919  0.660562  1
  Pt  Pt15  1  0.002011  0.504022  0.657960  1
  O  O16  1  0.487741  0.475482  0.753683  1
  H  H17  1  0.582595  0.665189  0.770374  1
