# generated using pymatgen
data_Cu3HPt13O
_symmetry_space_group_name_H-M   'P 1'
_cell_length_a   5.50941372
_cell_length_b   5.50941372
_cell_length_c   21.74762619
_cell_angle_alpha   90.00000000
_cell_angle_beta   90.00000000
_cell_angle_gamma   120.00000000
_symmetry_Int_Tables_number   1
_chemical_formula_structural   Cu3HPt13O
_chemical_formula_sum   'Cu3 H1 Pt13 O1'
_cell_volume   571.68034790
_cell_formula_units_Z   1
loop_
 _symmetry_equiv_pos_site_id
 _symmetry_equiv_pos_as_xyz
  1  'x, y, z'
loop_
 _atom_site_type_symbol
 _atom_site_label
 _atom_site_symmetry_multiplicity
 _atom_site_fract_x
 _atom_site_fract_y
 _atom_site_fract_z
 _atom_site_occupancy
  Pt  Pt0  1  0.000000  0.000000  0.344865  1
  Pt  Pt1  1  0.500000  0.000000  0.344865  1
  Pt  Pt2  1  0.500000  0.500000  0.344865  1
  Cu  Cu3  1  0.000000  0.500000  0.344865  1
  Pt  Pt4  1  0.666667  0.333333  0.448288  1
  Pt  Pt5  1  0.166667  0.333333  0.448288  1
  Pt  Pt6  1  0.166667  0.833333  0.448288  1
  Cu  Cu7  1  0.666667  0.833333  0.448288  1
  Pt  Pt8  1  0.334427  0.661737  0.551891  1
  Pt  Pt9  1  0.827310  0.661737  0.551891  1
  Pt  Pt10  1  0.831771  0.163543  0.550252  1
  Cu  Cu11  1  0.333075  0.166150  0.552244  1
  Pt  Pt12  1  1.005021  0.006815  0.655191  1
  Pt  Pt13  1  0.501793  0.006815  0.655191  1
  Pt  Pt14  1  0.503848  0.507697  0.662531  1
  Pt  Pt15  1  0.002613  0.505226  0.660016  1
  O  O16  1  0.474832  0.449663  0.754525  1
  H  H17  1  0.568877  0.637754  0.772652  1
