# generated using pymatgen
data_Co3HPt13O
_symmetry_space_group_name_H-M   'P 1'
_cell_length_a   5.48919786
_cell_length_b   5.48919786
_cell_length_c   21.72286692
_cell_angle_alpha   90.00000000
_cell_angle_beta   90.00000000
_cell_angle_gamma   120.00000000
_symmetry_Int_Tables_number   1
_chemical_formula_structural   Co3HPt13O
_chemical_formula_sum   'Co3 H1 Pt13 O1'
_cell_volume   566.84659687
_cell_formula_units_Z   1
loop_
 _symmetry_equiv_pos_site_id
 _symmetry_equiv_pos_as_xyz
  1  'x, y, z'
loop_
 _atom_site_type_symbol
 _atom_site_label
 _atom_site_symmetry_multiplicity
 _atom_site_fract_x
 _atom_site_fract_y
 _atom_site_fract_z
 _atom_site_occupancy
  Pt  Pt0  1  0.000000  0.000000  0.345258  1
  Pt  Pt1  1  0.500000  0.000000  0.345258  1
  Pt  Pt2  1  0.500000  0.500000  0.345258  1
  Co  Co3  1  -0.000000  0.500000  0.345258  1
  Pt  Pt4  1  0.666667  0.333333  0.448419  1
  Pt  Pt5  1  0.166667  0.333333  0.448419  1
  Pt  Pt6  1  0.166667  0.833333  0.448419  1
  Co  Co7  1  0.666667  0.833333  0.448419  1
  Pt  Pt8  1  0.337396  0.665755  0.551505  1
  Pt  Pt9  1  0.828358  0.665755  0.551505  1
  Pt  Pt10  1  0.833097  0.166193  0.549353  1
  Co  Co11  1  0.334733  0.169467  0.550551  1
  Pt  Pt12  1  0.013309  0.018844  0.654159  1
  Pt  Pt13  1  0.505536  0.018844  0.654159  1
  Pt  Pt14  1  0.509737  0.519475  0.663789  1
  Pt  Pt15  1  0.007639  0.515278  0.658979  1
  O  O16  1  0.490740  0.481479  0.756292  1
  H  H17  1  0.587008  0.674016  0.772344  1
