# generated using pymatgen
data_Fe3HPt13O
_symmetry_space_group_name_H-M   'P 1'
_cell_length_a   5.53689559
_cell_length_b   5.53689559
_cell_length_c   21.78128448
_cell_angle_alpha   90.00000000
_cell_angle_beta   90.00000000
_cell_angle_gamma   120.00000000
_symmetry_Int_Tables_number   1
_chemical_formula_structural   Fe3HPt13O
_chemical_formula_sum   'Fe3 H1 Pt13 O1'
_cell_volume   578.29147192
_cell_formula_units_Z   1
loop_
 _symmetry_equiv_pos_site_id
 _symmetry_equiv_pos_as_xyz
  1  'x, y, z'
loop_
 _atom_site_type_symbol
 _atom_site_label
 _atom_site_symmetry_multiplicity
 _atom_site_fract_x
 _atom_site_fract_y
 _atom_site_fract_z
 _atom_site_occupancy
  Pt  Pt0  1  0.000000  0.000000  0.344332  1
  Pt  Pt1  1  0.500000  0.000000  0.344332  1
  Pt  Pt2  1  0.500000  0.500000  0.344332  1
  Fe  Fe3  1  0.000000  0.500000  0.344332  1
  Pt  Pt4  1  0.666667  0.333333  0.448111  1
  Pt  Pt5  1  0.166667  0.333333  0.448111  1
  Pt  Pt6  1  0.166667  0.833333  0.448111  1
  Fe  Fe7  1  0.666667  0.833333  0.448111  1
  Pt  Pt8  1  0.335961  0.661689  0.549471  1
  Pt  Pt9  1  0.825728  0.661689  0.549471  1
  Pt  Pt10  1  0.830438  0.160876  0.547525  1
  Fe  Fe11  1  0.333090  0.166180  0.550548  1
  Pt  Pt12  1  0.008763  0.009133  0.651790  1
  Pt  Pt13  1  0.500370  1.009133  0.651790  1
  Pt  Pt14  1  0.504486  0.508972  0.659176  1
  Pt  Pt15  1  0.002680  0.505360  0.655909  1
  O  O16  1  0.478129  0.456258  0.751395  1
  H  H17  1  0.571644  0.643288  0.769408  1
