# generated using pymatgen
data_Ga3HPt13O
_symmetry_space_group_name_H-M   'P 1'
_cell_length_a   5.57378420
_cell_length_b   5.57378420
_cell_length_c   21.82646362
_cell_angle_alpha   90.00000000
_cell_angle_beta   90.00000000
_cell_angle_gamma   120.00000000
_symmetry_Int_Tables_number   1
_chemical_formula_structural   Ga3HPt13O
_chemical_formula_sum   'Ga3 H1 Pt13 O1'
_cell_volume   587.23821261
_cell_formula_units_Z   1
loop_
 _symmetry_equiv_pos_site_id
 _symmetry_equiv_pos_as_xyz
  1  'x, y, z'
loop_
 _atom_site_type_symbol
 _atom_site_label
 _atom_site_symmetry_multiplicity
 _atom_site_fract_x
 _atom_site_fract_y
 _atom_site_fract_z
 _atom_site_occupancy
  Pt  Pt0  1  0.000000  0.000000  0.343620  1
  Pt  Pt1  1  0.500000  0.000000  0.343620  1
  Pt  Pt2  1  0.500000  0.500000  0.343620  1
  Ga  Ga3  1  0.000000  0.500000  0.343620  1
  Pt  Pt4  1  0.666667  0.333333  0.447873  1
  Pt  Pt5  1  0.166667  0.333333  0.447873  1
  Pt  Pt6  1  0.166667  0.833333  0.447873  1
  Ga  Ga7  1  0.666667  0.833333  0.447873  1
  Pt  Pt8  1  0.329148  0.653804  0.552195  1
  Pt  Pt9  1  0.824656  0.653804  0.552195  1
  Pt  Pt10  1  0.828432  0.156863  0.549838  1
  Ga  Ga11  1  0.329050  0.158100  0.554025  1
  Pt  Pt12  1  1.005048  0.005298  0.655392  1
  Pt  Pt13  1  0.500250  0.005298  0.655392  1
  Pt  Pt14  1  0.504255  0.508510  0.661811  1
  Pt  Pt15  1  1.000952  0.501903  0.659617  1
  O  O16  1  0.472032  0.444063  0.753286  1
  H  H17  1  0.564497  0.628994  0.771815  1
