# generated using pymatgen
data_Ge3HPt13O
_symmetry_space_group_name_H-M   'P 1'
_cell_length_a   5.61067952
_cell_length_b   5.61067952
_cell_length_c   21.87165096
_cell_angle_alpha   90.00000000
_cell_angle_beta   90.00000000
_cell_angle_gamma   120.00000000
_symmetry_Int_Tables_number   1
_chemical_formula_structural   Ge3HPt13O
_chemical_formula_sum   'Ge3 H1 Pt13 O1'
_cell_volume   596.27022498
_cell_formula_units_Z   1
loop_
 _symmetry_equiv_pos_site_id
 _symmetry_equiv_pos_as_xyz
  1  'x, y, z'
loop_
 _atom_site_type_symbol
 _atom_site_label
 _atom_site_symmetry_multiplicity
 _atom_site_fract_x
 _atom_site_fract_y
 _atom_site_fract_z
 _atom_site_occupancy
  Pt  Pt0  1  0.000000  0.000000  0.342910  1
  Pt  Pt1  1  0.500000  0.000000  0.342910  1
  Pt  Pt2  1  0.500000  0.500000  0.342910  1
  Ge  Ge3  1  -0.000000  0.500000  0.342910  1
  Pt  Pt4  1  0.666667  0.333333  0.447637  1
  Pt  Pt5  1  0.166667  0.333333  0.447637  1
  Pt  Pt6  1  0.166667  0.833333  0.447637  1
  Ge  Ge7  1  0.666667  0.833333  0.447637  1
  Pt  Pt8  1  0.321080  0.636866  0.554034  1
  Pt  Pt9  1  0.815786  0.636866  0.554034  1
  Pt  Pt10  1  0.820885  0.141769  0.548905  1
  Ge  Ge11  1  0.319824  0.139648  0.561773  1
  Pt  Pt12  1  1.000478  0.998429  0.657473  1
  Pt  Pt13  1  0.497951  0.998429  0.657473  1
  Pt  Pt14  1  0.503894  0.507787  0.666001  1
  Pt  Pt15  1  0.997661  0.495322  0.661383  1
  O  O16  1  0.473017  0.446033  0.756691  1
  H  H17  1  0.565472  0.630944  0.774618  1
