# generated using pymatgen
data_HIr3Pt13O
_symmetry_space_group_name_H-M   'P 1'
_cell_length_a   5.57653608
_cell_length_b   5.57653608
_cell_length_c   21.82983397
_cell_angle_alpha   90.00000000
_cell_angle_beta   90.00000000
_cell_angle_gamma   120.00000000
_symmetry_Int_Tables_number   1
_chemical_formula_structural   HIr3Pt13O
_chemical_formula_sum   'Ir3 H1 Pt13 O1'
_cell_volume   587.90898480
_cell_formula_units_Z   1
loop_
 _symmetry_equiv_pos_site_id
 _symmetry_equiv_pos_as_xyz
  1  'x, y, z'
loop_
 _atom_site_type_symbol
 _atom_site_label
 _atom_site_symmetry_multiplicity
 _atom_site_fract_x
 _atom_site_fract_y
 _atom_site_fract_z
 _atom_site_occupancy
  Pt  Pt0  1  0.000000  0.000000  0.343567  1
  Pt  Pt1  1  0.500000  0.000000  0.343567  1
  Pt  Pt2  1  0.500000  0.500000  0.343567  1
  Ir  Ir3  1  0.000000  0.500000  0.343567  1
  Pt  Pt4  1  0.666667  0.333333  0.447856  1
  Pt  Pt5  1  0.166667  0.333333  0.447856  1
  Pt  Pt6  1  0.166667  0.833333  0.447856  1
  Ir  Ir7  1  0.666667  0.833333  0.447856  1
  Pt  Pt8  1  0.336911  0.666730  0.552654  1
  Pt  Pt9  1  0.829819  0.666730  0.552654  1
  Pt  Pt10  1  0.834057  0.168114  0.550679  1
  Ir  Ir11  1  0.334020  0.168041  0.550938  1
  Pt  Pt12  1  0.010639  0.014106  0.655849  1
  Pt  Pt13  1  0.503467  0.014106  0.655849  1
  Pt  Pt14  1  0.507916  0.515832  0.664506  1
  Pt  Pt15  1  0.005438  0.510877  0.657373  1
  O  O16  1  0.494223  0.488445  0.756456  1
  H  H17  1  0.589479  0.678957  0.771854  1
