# generated using pymatgen
data_La3HPt13O
_symmetry_space_group_name_H-M   'P 1'
_cell_length_a   5.98910262
_cell_length_b   5.98910262
_cell_length_c   22.33512271
_cell_angle_alpha   90.00000000
_cell_angle_beta   90.00000000
_cell_angle_gamma   120.00000000
_symmetry_Int_Tables_number   1
_chemical_formula_structural   La3HPt13O
_chemical_formula_sum   'La3 H1 Pt13 O1'
_cell_volume   693.81308009
_cell_formula_units_Z   1
loop_
 _symmetry_equiv_pos_site_id
 _symmetry_equiv_pos_as_xyz
  1  'x, y, z'
loop_
 _atom_site_type_symbol
 _atom_site_label
 _atom_site_symmetry_multiplicity
 _atom_site_fract_x
 _atom_site_fract_y
 _atom_site_fract_z
 _atom_site_occupancy
  Pt  Pt0  1  0.000000  0.000000  0.335794  1
  Pt  Pt1  1  0.500000  0.000000  0.335794  1
  Pt  Pt2  1  0.500000  0.500000  0.335794  1
  La  La3  1  0.000000  0.500000  0.335794  1
  Pt  Pt4  1  0.666667  0.333333  0.445265  1
  Pt  Pt5  1  0.166667  0.333333  0.445265  1
  Pt  Pt6  1  0.166667  0.833333  0.445265  1
  La  La7  1  0.666667  0.833333  0.445265  1
  Pt  Pt8  1  0.321687  0.654513  0.557445  1
  Pt  Pt9  1  0.832826  0.654513  0.557445  1
  Pt  Pt10  1  0.839261  0.178522  0.553513  1
  La  La11  1  0.330310  0.160619  0.556461  1
  Pt  Pt12  1  -0.008029  0.010713  0.658663  1
  Pt  Pt13  1  0.518742  0.010713  0.658663  1
  Pt  Pt14  1  0.518573  0.537147  0.662125  1
  Pt  Pt15  1  0.005512  0.511025  0.657658  1
  O  O16  1  0.479622  0.459245  0.749767  1
  H  H17  1  0.563606  0.627213  0.769904  1
