# generated using pymatgen
data_Mo3HPt13O
_symmetry_space_group_name_H-M   'P 1'
_cell_length_a   5.60421246
_cell_length_b   5.60421246
_cell_length_c   21.86373047
_cell_angle_alpha   90.00000000
_cell_angle_beta   90.00000000
_cell_angle_gamma   120.00000000
_symmetry_Int_Tables_number   1
_chemical_formula_structural   Mo3HPt13O
_chemical_formula_sum   'Mo3 H1 Pt13 O1'
_cell_volume   594.68102232
_cell_formula_units_Z   1
loop_
 _symmetry_equiv_pos_site_id
 _symmetry_equiv_pos_as_xyz
  1  'x, y, z'
loop_
 _atom_site_type_symbol
 _atom_site_label
 _atom_site_symmetry_multiplicity
 _atom_site_fract_x
 _atom_site_fract_y
 _atom_site_fract_z
 _atom_site_occupancy
  Pt  Pt0  1  0.000000  0.000000  0.343034  1
  Pt  Pt1  1  0.500000  1.000000  0.343034  1
  Pt  Pt2  1  0.500000  0.500000  0.343034  1
  Mo  Mo3  1  -0.000000  0.500000  0.343034  1
  Pt  Pt4  1  0.666667  0.333333  0.447678  1
  Pt  Pt5  1  0.166667  0.333333  0.447678  1
  Pt  Pt6  1  0.166667  0.833333  0.447678  1
  Mo  Mo7  1  0.666667  0.833333  0.447678  1
  Pt  Pt8  1  0.335853  0.660779  0.550693  1
  Pt  Pt9  1  0.824927  0.660779  0.550693  1
  Pt  Pt10  1  0.831127  0.162254  0.548534  1
  Mo  Mo11  1  0.333645  0.167290  0.560320  1
  Pt  Pt12  1  0.004767  1.002245  0.655309  1
  Pt  Pt13  1  0.497478  1.002245  0.655309  1
  Pt  Pt14  1  0.502966  0.505931  0.661282  1
  Pt  Pt15  1  -0.001085  0.497831  0.659804  1
  O  O16  1  0.480189  0.460378  0.754035  1
  H  H17  1  0.572410  0.644819  0.772127  1
