# generated using pymatgen
data_Ni3HPt13O
_symmetry_space_group_name_H-M   'P 1'
_cell_length_a   5.48007346
_cell_length_b   5.48007346
_cell_length_c   21.71169186
_cell_angle_alpha   90.00000000
_cell_angle_beta   90.00000000
_cell_angle_gamma   120.00000000
_symmetry_Int_Tables_number   1
_chemical_formula_structural   Ni3HPt13O
_chemical_formula_sum   'Ni3 H1 Pt13 O1'
_cell_volume   564.67304746
_cell_formula_units_Z   1
loop_
 _symmetry_equiv_pos_site_id
 _symmetry_equiv_pos_as_xyz
  1  'x, y, z'
loop_
 _atom_site_type_symbol
 _atom_site_label
 _atom_site_symmetry_multiplicity
 _atom_site_fract_x
 _atom_site_fract_y
 _atom_site_fract_z
 _atom_site_occupancy
  Pt  Pt0  1  0.000000  0.000000  0.345436  1
  Pt  Pt1  1  0.500000  0.000000  0.345436  1
  Pt  Pt2  1  0.500000  0.500000  0.345436  1
  Ni  Ni3  1  0.000000  0.500000  0.345436  1
  Pt  Pt4  1  0.666667  0.333333  0.448479  1
  Pt  Pt5  1  0.166667  0.333333  0.448479  1
  Pt  Pt6  1  0.166667  0.833333  0.448479  1
  Ni  Ni7  1  0.666667  0.833333  0.448479  1
  Pt  Pt8  1  0.335181  0.662810  0.551871  1
  Pt  Pt9  1  0.827629  0.662810  0.551871  1
  Pt  Pt10  1  0.831516  0.163032  0.550082  1
  Ni  Ni11  1  0.333585  0.167170  0.552676  1
  Pt  Pt12  1  0.006293  0.007173  0.655453  1
  Pt  Pt13  1  0.500880  0.007173  0.655453  1
  Pt  Pt14  1  0.504081  0.508163  0.663938  1
  Pt  Pt15  1  0.002442  0.504884  0.660031  1
  O  O16  1  0.484824  0.469647  0.756459  1
  H  H17  1  0.581107  0.662214  0.772699  1
