# generated using pymatgen
data_Nb3HPt13O
_symmetry_space_group_name_H-M   'P 1'
_cell_length_a   5.65226066
_cell_length_b   5.65226066
_cell_length_c   21.92257725
_cell_angle_alpha   90.00000000
_cell_angle_beta   90.00000000
_cell_angle_gamma   120.00000000
_symmetry_Int_Tables_number   1
_chemical_formula_structural   Nb3HPt13O
_chemical_formula_sum   'Nb3 H1 Pt13 O1'
_cell_volume   606.54999544
_cell_formula_units_Z   1
loop_
 _symmetry_equiv_pos_site_id
 _symmetry_equiv_pos_as_xyz
  1  'x, y, z'
loop_
 _atom_site_type_symbol
 _atom_site_label
 _atom_site_symmetry_multiplicity
 _atom_site_fract_x
 _atom_site_fract_y
 _atom_site_fract_z
 _atom_site_occupancy
  Pt  Pt0  1  0.000000  0.000000  0.342113  1
  Pt  Pt1  1  0.500000  0.000000  0.342113  1
  Pt  Pt2  1  0.500000  0.500000  0.342113  1
  Nb  Nb3  1  -0.000000  0.500000  0.342113  1
  Pt  Pt4  1  0.666667  0.333333  0.447371  1
  Pt  Pt5  1  0.166667  0.333333  0.447371  1
  Pt  Pt6  1  0.166667  0.833333  0.447371  1
  Nb  Nb7  1  0.666667  0.833333  0.447371  1
  Pt  Pt8  1  0.336128  0.661374  0.550798  1
  Pt  Pt9  1  0.825246  0.661374  0.550798  1
  Pt  Pt10  1  0.832580  0.165159  0.548880  1
  Nb  Nb11  1  0.334591  0.169182  0.562224  1
  Pt  Pt12  1  0.009813  1.013045  0.656239  1
  Pt  Pt13  1  0.503233  1.013045  0.656239  1
  Pt  Pt14  1  0.509681  0.519361  0.660409  1
  Pt  Pt15  1  0.004200  0.508400  0.659967  1
  O  O16  1  0.481360  0.462720  0.752657  1
  H  H17  1  0.573165  0.646330  0.770427  1
