# generated using pymatgen
data_HOs3Pt13O
_symmetry_space_group_name_H-M   'P 1'
_cell_length_a   5.56674097
_cell_length_b   5.56674097
_cell_length_c   21.81783746
_cell_angle_alpha   90.00000000
_cell_angle_beta   90.00000000
_cell_angle_gamma   120.00000000
_symmetry_Int_Tables_number   1
_chemical_formula_structural   HOs3Pt13O
_chemical_formula_sum   'Os3 H1 Pt13 O1'
_cell_volume   585.52354102
_cell_formula_units_Z   1
loop_
 _symmetry_equiv_pos_site_id
 _symmetry_equiv_pos_as_xyz
  1  'x, y, z'
loop_
 _atom_site_type_symbol
 _atom_site_label
 _atom_site_symmetry_multiplicity
 _atom_site_fract_x
 _atom_site_fract_y
 _atom_site_fract_z
 _atom_site_occupancy
  Pt  Pt0  1  0.000000  0.000000  0.343755  1
  Pt  Pt1  1  0.500000  0.000000  0.343755  1
  Pt  Pt2  1  0.500000  0.500000  0.343755  1
  Os  Os3  1  0.000000  0.500000  0.343755  1
  Pt  Pt4  1  0.666667  0.333333  0.447918  1
  Pt  Pt5  1  0.166667  0.333333  0.447918  1
  Pt  Pt6  1  0.166667  0.833333  0.447918  1
  Os  Os7  1  0.666667  0.833333  0.447918  1
  Pt  Pt8  1  0.336013  0.663326  0.551163  1
  Pt  Pt9  1  0.827313  0.663326  0.551163  1
  Pt  Pt10  1  0.831627  0.163253  0.549202  1
  Os  Os11  1  0.331748  0.163497  0.553697  1
  Pt  Pt12  1  1.005993  0.005417  0.655034  1
  Pt  Pt13  1  0.499424  0.005417  0.655034  1
  Pt  Pt14  1  0.503571  0.507141  0.662405  1
  Pt  Pt15  1  1.000654  0.501309  0.657509  1
  O  O16  1  0.488959  0.477918  0.754943  1
  H  H17  1  0.583722  0.667443  0.771048  1
