# generated using pymatgen
data_HPd3Pt13O
_symmetry_space_group_name_H-M   'P 1'
_cell_length_a   5.59544306
_cell_length_b   5.59544306
_cell_length_c   21.85299019
_cell_angle_alpha   90.00000000
_cell_angle_beta   90.00000000
_cell_angle_gamma   120.00000000
_symmetry_Int_Tables_number   1
_chemical_formula_structural   HPd3Pt13O
_chemical_formula_sum   'Pd3 H1 Pt13 O1'
_cell_volume   592.53016297
_cell_formula_units_Z   1
loop_
 _symmetry_equiv_pos_site_id
 _symmetry_equiv_pos_as_xyz
  1  'x, y, z'
loop_
 _atom_site_type_symbol
 _atom_site_label
 _atom_site_symmetry_multiplicity
 _atom_site_fract_x
 _atom_site_fract_y
 _atom_site_fract_z
 _atom_site_occupancy
  Pt  Pt0  1  0.000000  0.000000  0.343202  1
  Pt  Pt1  1  0.500000  0.000000  0.343202  1
  Pt  Pt2  1  0.500000  0.500000  0.343202  1
  Pd  Pd3  1  -0.000000  0.500000  0.343202  1
  Pt  Pt4  1  0.666667  0.333333  0.447734  1
  Pt  Pt5  1  0.166667  0.333333  0.447734  1
  Pt  Pt6  1  0.166667  0.833333  0.447734  1
  Pd  Pd7  1  0.666667  0.833333  0.447734  1
  Pt  Pt8  1  0.333357  0.662190  0.553104  1
  Pt  Pt9  1  0.828833  0.662190  0.553104  1
  Pt  Pt10  1  0.832254  0.164508  0.551503  1
  Pd  Pd11  1  0.333290  0.166580  0.553392  1
  Pt  Pt12  1  0.997660  0.995983  0.657296  1
  Pt  Pt13  1  0.498324  0.995983  0.657296  1
  Pt  Pt14  1  0.499553  0.499106  0.665299  1
  Pt  Pt15  1  0.998796  0.497592  0.657974  1
  O  O16  1  0.482782  0.465564  0.756750  1
  H  H17  1  0.577293  0.654585  0.772656  1
