# generated using pymatgen
data_HPt13Pb3O
_symmetry_space_group_name_H-M   'P 1'
_cell_length_a   5.84058879
_cell_length_b   5.84058879
_cell_length_c   22.15323116
_cell_angle_alpha   90.00000000
_cell_angle_beta   90.00000000
_cell_angle_gamma   120.00000000
_symmetry_Int_Tables_number   1
_chemical_formula_structural   HPt13Pb3O
_chemical_formula_sum   'H1 Pt13 Pb3 O1'
_cell_volume   654.45678022
_cell_formula_units_Z   1
loop_
 _symmetry_equiv_pos_site_id
 _symmetry_equiv_pos_as_xyz
  1  'x, y, z'
loop_
 _atom_site_type_symbol
 _atom_site_label
 _atom_site_symmetry_multiplicity
 _atom_site_fract_x
 _atom_site_fract_y
 _atom_site_fract_z
 _atom_site_occupancy
  Pt  Pt0  1  0.000000  0.000000  0.338551  1
  Pt  Pt1  1  0.500000  0.000000  0.338551  1
  Pt  Pt2  1  0.500000  0.500000  0.338551  1
  Pb  Pb3  1  -0.000000  0.500000  0.338551  1
  Pt  Pt4  1  0.666667  0.333333  0.446184  1
  Pt  Pt5  1  0.166667  0.333333  0.446184  1
  Pt  Pt6  1  0.166667  0.833333  0.446184  1
  Pb  Pb7  1  0.666667  0.833333  0.446184  1
  Pt  Pt8  1  0.327332  0.653484  0.554730  1
  Pt  Pt9  1  0.826152  0.653484  0.554730  1
  Pt  Pt10  1  0.835364  0.170729  0.552186  1
  Pb  Pb11  1  0.327923  0.155847  0.556323  1
  Pt  Pt12  1  0.992163  -0.001809  0.658181  1
  Pt  Pt13  1  0.506028  -0.001809  0.658181  1
  Pt  Pt14  1  0.508036  0.516073  0.663399  1
  Pt  Pt15  1  1.002123  0.504247  0.657892  1
  O  O16  1  0.474600  0.449200  0.752178  1
  H  H17  1  0.562071  0.624142  0.771216  1
