# generated using pymatgen
data_HRu3Pt13O
_symmetry_space_group_name_H-M   'P 1'
_cell_length_a   5.55352419
_cell_length_b   5.55352419
_cell_length_c   21.80165027
_cell_angle_alpha   90.00000000
_cell_angle_beta   90.00000000
_cell_angle_gamma   120.00000000
_symmetry_Int_Tables_number   1
_chemical_formula_structural   HRu3Pt13O
_chemical_formula_sum   'Ru3 H1 Pt13 O1'
_cell_volume   582.31414077
_cell_formula_units_Z   1
loop_
 _symmetry_equiv_pos_site_id
 _symmetry_equiv_pos_as_xyz
  1  'x, y, z'
loop_
 _atom_site_type_symbol
 _atom_site_label
 _atom_site_symmetry_multiplicity
 _atom_site_fract_x
 _atom_site_fract_y
 _atom_site_fract_z
 _atom_site_occupancy
  Pt  Pt0  1  0.000000  0.000000  0.344011  1
  Pt  Pt1  1  0.500000  0.000000  0.344011  1
  Pt  Pt2  1  0.500000  0.500000  0.344011  1
  Ru  Ru3  1  1.000000  0.500000  0.344011  1
  Pt  Pt4  1  0.666667  0.333333  0.448004  1
  Pt  Pt5  1  0.166667  0.333333  0.448004  1
  Pt  Pt6  1  0.166667  0.833333  0.448004  1
  Ru  Ru7  1  0.666667  0.833333  0.448004  1
  Pt  Pt8  1  0.335578  0.662958  0.551923  1
  Pt  Pt9  1  0.827380  0.662958  0.551923  1
  Pt  Pt10  1  0.831910  0.163821  0.549700  1
  Ru  Ru11  1  0.331499  0.162998  0.551635  1
  Pt  Pt12  1  1.007516  0.008500  0.655514  1
  Pt  Pt13  1  0.500984  0.008500  0.655514  1
  Pt  Pt14  1  0.505338  0.510675  0.663560  1
  Pt  Pt15  1  1.002378  0.504756  0.657761  1
  O  O16  1  0.488308  0.476616  0.755852  1
  H  H17  1  0.583465  0.666929  0.771839  1
