# generated using pymatgen
data_Re3HPt13O
_symmetry_space_group_name_H-M   'P 1'
_cell_length_a   5.57877751
_cell_length_b   5.57877751
_cell_length_c   21.83257914
_cell_angle_alpha   90.00000000
_cell_angle_beta   90.00000000
_cell_angle_gamma   120.00000000
_symmetry_Int_Tables_number   1
_chemical_formula_structural   Re3HPt13O
_chemical_formula_sum   'Re3 H1 Pt13 O1'
_cell_volume   588.45567723
_cell_formula_units_Z   1
loop_
 _symmetry_equiv_pos_site_id
 _symmetry_equiv_pos_as_xyz
  1  'x, y, z'
loop_
 _atom_site_type_symbol
 _atom_site_label
 _atom_site_symmetry_multiplicity
 _atom_site_fract_x
 _atom_site_fract_y
 _atom_site_fract_z
 _atom_site_occupancy
  Pt  Pt0  1  0.000000  0.000000  0.343523  1
  Pt  Pt1  1  0.500000  0.000000  0.343523  1
  Pt  Pt2  1  0.500000  0.500000  0.343523  1
  Re  Re3  1  0.000000  0.500000  0.343523  1
  Pt  Pt4  1  0.666667  0.333333  0.447841  1
  Pt  Pt5  1  0.166667  0.333333  0.447841  1
  Pt  Pt6  1  0.166667  0.833333  0.447841  1
  Re  Re7  1  0.666667  0.833333  0.447841  1
  Pt  Pt8  1  0.336773  0.662899  0.550693  1
  Pt  Pt9  1  0.826126  0.662899  0.550693  1
  Pt  Pt10  1  0.830543  0.161086  0.548609  1
  Re  Re11  1  0.332967  0.165934  0.558670  1
  Pt  Pt12  1  0.004706  1.001815  0.655549  1
  Pt  Pt13  1  0.497109  0.001815  0.655549  1
  Pt  Pt14  1  0.502240  0.504480  0.661741  1
  Pt  Pt15  1  -0.001470  0.497059  0.659220  1
  O  O16  1  0.493153  0.486307  0.755044  1
  H  H17  1  0.587979  0.675957  0.770798  1
