# generated using pymatgen
data_HPt13Rh3O
_symmetry_space_group_name_H-M   'P 1'
_cell_length_a   5.56278887
_cell_length_b   5.56278887
_cell_length_c   21.81299714
_cell_angle_alpha   90.00000000
_cell_angle_beta   90.00000000
_cell_angle_gamma   120.00000000
_symmetry_Int_Tables_number   1
_chemical_formula_structural   HPt13Rh3O
_chemical_formula_sum   'H1 Pt13 Rh3 O1'
_cell_volume   584.56273804
_cell_formula_units_Z   1
loop_
 _symmetry_equiv_pos_site_id
 _symmetry_equiv_pos_as_xyz
  1  'x, y, z'
loop_
 _atom_site_type_symbol
 _atom_site_label
 _atom_site_symmetry_multiplicity
 _atom_site_fract_x
 _atom_site_fract_y
 _atom_site_fract_z
 _atom_site_occupancy
  Pt  Pt0  1  0.000000  0.000000  0.343832  1
  Pt  Pt1  1  0.500000  0.000000  0.343832  1
  Pt  Pt2  1  0.500000  0.500000  0.343832  1
  Rh  Rh3  1  -0.000000  0.500000  0.343832  1
  Pt  Pt4  1  0.666667  0.333333  0.447944  1
  Pt  Pt5  1  0.166667  0.333333  0.447944  1
  Pt  Pt6  1  0.166667  0.833333  0.447944  1
  Rh  Rh7  1  0.666667  0.833333  0.447944  1
  Pt  Pt8  1  0.336071  0.665904  0.553040  1
  Pt  Pt9  1  0.829833  0.665904  0.553040  1
  Pt  Pt10  1  0.833881  0.167763  0.551077  1
  Rh  Rh11  1  0.334136  0.168273  0.551600  1
  Pt  Pt12  1  1.007951  0.010931  0.656579  1
  Pt  Pt13  1  0.502980  1.010931  0.656579  1
  Pt  Pt14  1  0.506401  0.512801  0.665473  1
  Pt  Pt15  1  1.004456  0.508912  0.658179  1
  O  O16  1  0.491910  0.483820  0.757453  1
  H  H17  1  0.587445  0.674890  0.772837  1
