# generated using pymatgen
data_Sc3HPt13O
_symmetry_space_group_name_H-M   'P 1'
_cell_length_a   5.66400556
_cell_length_b   5.66400556
_cell_length_c   21.93696176
_cell_angle_alpha   90.00000000
_cell_angle_beta   90.00000000
_cell_angle_gamma   120.00000000
_symmetry_Int_Tables_number   1
_chemical_formula_structural   Sc3HPt13O
_chemical_formula_sum   'Sc3 H1 Pt13 O1'
_cell_volume   609.47297314
_cell_formula_units_Z   1
loop_
 _symmetry_equiv_pos_site_id
 _symmetry_equiv_pos_as_xyz
  1  'x, y, z'
loop_
 _atom_site_type_symbol
 _atom_site_label
 _atom_site_symmetry_multiplicity
 _atom_site_fract_x
 _atom_site_fract_y
 _atom_site_fract_z
 _atom_site_occupancy
  Pt  Pt0  1  0.000000  0.000000  0.341889  1
  Pt  Pt1  1  0.500000  0.000000  0.341889  1
  Pt  Pt2  1  0.500000  0.500000  0.341889  1
  Sc  Sc3  1  0.000000  0.500000  0.341889  1
  Pt  Pt4  1  0.666667  0.333333  0.447296  1
  Pt  Pt5  1  0.166667  0.333333  0.447296  1
  Pt  Pt6  1  0.166667  0.833333  0.447296  1
  Sc  Sc7  1  0.666667  0.833333  0.447296  1
  Pt  Pt8  1  0.329338  0.657623  0.553421  1
  Pt  Pt9  1  0.828285  0.657623  0.553421  1
  Pt  Pt10  1  0.831841  0.163682  0.552550  1
  Sc  Sc11  1  0.330713  0.161426  0.555928  1
  Pt  Pt12  1  0.007829  0.012089  0.657778  1
  Pt  Pt13  1  0.504260  0.012089  0.657778  1
  Pt  Pt14  1  0.509470  0.518941  0.661254  1
  Pt  Pt15  1  0.005557  0.511113  0.660130  1
  O  O16  1  0.472509  0.445019  0.752319  1
  H  H17  1  0.562108  0.624216  0.772041  1
