# generated using pymatgen
data_Sb3HPt13O
_symmetry_space_group_name_H-M   'P 1'
_cell_length_a   5.78707058
_cell_length_b   5.78707058
_cell_length_c   22.08768501
_cell_angle_alpha   90.00000000
_cell_angle_beta   90.00000000
_cell_angle_gamma   120.00000000
_symmetry_Int_Tables_number   1
_chemical_formula_structural   Sb3HPt13O
_chemical_formula_sum   'Sb3 H1 Pt13 O1'
_cell_volume   640.61689842
_cell_formula_units_Z   1
loop_
 _symmetry_equiv_pos_site_id
 _symmetry_equiv_pos_as_xyz
  1  'x, y, z'
loop_
 _atom_site_type_symbol
 _atom_site_label
 _atom_site_symmetry_multiplicity
 _atom_site_fract_x
 _atom_site_fract_y
 _atom_site_fract_z
 _atom_site_occupancy
  Pt  Pt0  1  0.000000  0.000000  0.339556  1
  Pt  Pt1  1  0.500000  0.000000  0.339556  1
  Pt  Pt2  1  0.500000  0.500000  0.339556  1
  Sb  Sb3  1  0.000000  0.500000  0.339556  1
  Pt  Pt4  1  0.666667  0.333333  0.446519  1
  Pt  Pt5  1  0.166667  0.333333  0.446519  1
  Pt  Pt6  1  0.166667  0.833333  0.446519  1
  Sb  Sb7  1  0.666667  0.833333  0.446519  1
  Pt  Pt8  1  0.330036  0.654434  0.552728  1
  Pt  Pt9  1  0.824399  0.654434  0.552728  1
  Pt  Pt10  1  0.833400  0.166801  0.549880  1
  Sb  Sb11  1  0.330031  0.160061  0.563571  1
  Pt  Pt12  1  -0.000359  0.006741  0.657996  1
  Pt  Pt13  1  0.507100  0.006741  0.657996  1
  Pt  Pt14  1  0.512346  0.524692  0.664364  1
  Pt  Pt15  1  0.003890  0.507780  0.657727  1
  O  O16  1  0.474928  0.449856  0.753581  1
  H  H17  1  0.562483  0.624967  0.773351  1
