# generated using pymatgen
data_Ti3HPt13O
_symmetry_space_group_name_H-M   'P 1'
_cell_length_a   5.58207465
_cell_length_b   5.58207465
_cell_length_c   21.83661730
_cell_angle_alpha   90.00000000
_cell_angle_beta   90.00000000
_cell_angle_gamma   120.00000000
_symmetry_Int_Tables_number   1
_chemical_formula_structural   Ti3HPt13O
_chemical_formula_sum   'Ti3 H1 Pt13 O1'
_cell_volume   589.26042574
_cell_formula_units_Z   1
loop_
 _symmetry_equiv_pos_site_id
 _symmetry_equiv_pos_as_xyz
  1  'x, y, z'
loop_
 _atom_site_type_symbol
 _atom_site_label
 _atom_site_symmetry_multiplicity
 _atom_site_fract_x
 _atom_site_fract_y
 _atom_site_fract_z
 _atom_site_occupancy
  Pt  Pt0  1  0.000000  0.000000  0.343460  1
  Pt  Pt1  1  0.500000  0.000000  0.343460  1
  Pt  Pt2  1  0.500000  0.500000  0.343460  1
  Ti  Ti3  1  0.000000  0.500000  0.343460  1
  Pt  Pt4  1  0.666667  0.333333  0.447820  1
  Pt  Pt5  1  0.166667  0.333333  0.447820  1
  Pt  Pt6  1  0.166667  0.833333  0.447820  1
  Ti  Ti7  1  0.666667  0.833333  0.447820  1
  Pt  Pt8  1  0.335344  0.660802  0.551280  1
  Pt  Pt9  1  0.825458  0.660802  0.551280  1
  Pt  Pt10  1  0.832099  0.164198  0.549525  1
  Ti  Ti11  1  0.333339  0.166679  0.559620  1
  Pt  Pt12  1  0.009677  0.012214  0.655858  1
  Pt  Pt13  1  0.502537  1.012214  0.655858  1
  Pt  Pt14  1  0.507893  0.515786  0.660513  1
  Pt  Pt15  1  0.004478  0.508956  0.660664  1
  O  O16  1  0.473427  0.446855  0.752823  1
  H  H17  1  0.564988  0.629976  0.772013  1
