# generated using pymatgen
data_Ta3HPt13O
_symmetry_space_group_name_H-M   'P 1'
_cell_length_a   5.65313283
_cell_length_b   5.65313283
_cell_length_c   21.92364544
_cell_angle_alpha   90.00000000
_cell_angle_beta   90.00000000
_cell_angle_gamma   120.00000000
_symmetry_Int_Tables_number   1
_chemical_formula_structural   Ta3HPt13O
_chemical_formula_sum   'Ta3 H1 Pt13 O1'
_cell_volume   606.76676052
_cell_formula_units_Z   1
loop_
 _symmetry_equiv_pos_site_id
 _symmetry_equiv_pos_as_xyz
  1  'x, y, z'
loop_
 _atom_site_type_symbol
 _atom_site_label
 _atom_site_symmetry_multiplicity
 _atom_site_fract_x
 _atom_site_fract_y
 _atom_site_fract_z
 _atom_site_occupancy
  Pt  Pt0  1  0.000000  0.000000  0.342096  1
  Pt  Pt1  1  0.500000  0.000000  0.342096  1
  Pt  Pt2  1  0.500000  0.500000  0.342096  1
  Ta  Ta3  1  0.000000  0.500000  0.342096  1
  Pt  Pt4  1  0.666667  0.333333  0.447365  1
  Pt  Pt5  1  0.166667  0.333333  0.447365  1
  Pt  Pt6  1  0.166667  0.833333  0.447365  1
  Ta  Ta7  1  0.666667  0.833333  0.447365  1
  Pt  Pt8  1  0.336760  0.662948  0.550634  1
  Pt  Pt9  1  0.826188  0.662948  0.550634  1
  Pt  Pt10  1  0.832945  0.165890  0.548720  1
  Ta  Ta11  1  0.335666  0.171331  0.562719  1
  Pt  Pt12  1  0.009070  0.012512  0.656201  1
  Pt  Pt13  1  0.503442  0.012512  0.656201  1
  Pt  Pt14  1  0.508875  0.517750  0.660362  1
  Pt  Pt15  1  0.004589  0.509178  0.660211  1
  O  O16  1  0.473477  0.446954  0.752176  1
  H  H17  1  0.563965  0.627930  0.771231  1
