# generated using pymatgen
data_V3HPt13O
_symmetry_space_group_name_H-M   'P 1'
_cell_length_a   5.54065534
_cell_length_b   5.54065534
_cell_length_c   21.78588921
_cell_angle_alpha   90.00000000
_cell_angle_beta   90.00000000
_cell_angle_gamma   120.00000000
_symmetry_Int_Tables_number   1
_chemical_formula_structural   V3HPt13O
_chemical_formula_sum   'V3 H1 Pt13 O1'
_cell_volume   579.19952006
_cell_formula_units_Z   1
loop_
 _symmetry_equiv_pos_site_id
 _symmetry_equiv_pos_as_xyz
  1  'x, y, z'
loop_
 _atom_site_type_symbol
 _atom_site_label
 _atom_site_symmetry_multiplicity
 _atom_site_fract_x
 _atom_site_fract_y
 _atom_site_fract_z
 _atom_site_occupancy
  Pt  Pt0  1  0.000000  0.000000  0.344260  1
  Pt  Pt1  1  0.500000  0.000000  0.344260  1
  Pt  Pt2  1  0.500000  0.500000  0.344260  1
  V  V3  1  -0.000000  0.500000  0.344260  1
  Pt  Pt4  1  0.666667  0.333333  0.448087  1
  Pt  Pt5  1  0.166667  0.333333  0.448087  1
  Pt  Pt6  1  0.166667  0.833333  0.448087  1
  V  V7  1  0.666667  0.833333  0.448087  1
  Pt  Pt8  1  0.335911  0.660340  0.550420  1
  Pt  Pt9  1  0.824429  0.660340  0.550420  1
  Pt  Pt10  1  0.830656  0.161312  0.548320  1
  V  V11  1  0.336487  0.172973  0.561434  1
  Pt  Pt12  1  0.010355  0.011150  0.654803  1
  Pt  Pt13  1  0.500795  0.011150  0.654803  1
  Pt  Pt14  1  0.506908  0.513816  0.660917  1
  Pt  Pt15  1  1.002857  0.505714  0.660220  1
  O  O16  1  0.478305  0.456611  0.753816  1
  H  H17  1  0.571093  0.642187  0.772471  1
