# generated using pymatgen
data_Y3HPt13O
_symmetry_space_group_name_H-M   'P 1'
_cell_length_a   5.82822594
_cell_length_b   5.82822594
_cell_length_c   22.13808983
_cell_angle_alpha   90.00000000
_cell_angle_beta   90.00000000
_cell_angle_gamma   120.00000000
_symmetry_Int_Tables_number   1
_chemical_formula_structural   Y3HPt13O
_chemical_formula_sum   'Y3 H1 Pt13 O1'
_cell_volume   651.24370249
_cell_formula_units_Z   1
loop_
 _symmetry_equiv_pos_site_id
 _symmetry_equiv_pos_as_xyz
  1  'x, y, z'
loop_
 _atom_site_type_symbol
 _atom_site_label
 _atom_site_symmetry_multiplicity
 _atom_site_fract_x
 _atom_site_fract_y
 _atom_site_fract_z
 _atom_site_occupancy
  Pt  Pt0  1  0.000000  0.000000  0.338783  1
  Pt  Pt1  1  0.500000  0.000000  0.338783  1
  Pt  Pt2  1  0.500000  0.500000  0.338783  1
  Y  Y3  1  0.000000  0.500000  0.338783  1
  Pt  Pt4  1  0.666667  0.333333  0.446261  1
  Pt  Pt5  1  0.166667  0.333333  0.446261  1
  Pt  Pt6  1  0.166667  0.833333  0.446261  1
  Y  Y7  1  0.666667  0.833333  0.446261  1
  Pt  Pt8  1  0.325264  0.655115  0.555162  1
  Pt  Pt9  1  0.829850  0.655115  0.555162  1
  Pt  Pt10  1  0.834184  0.168367  0.554244  1
  Y  Y11  1  0.330316  0.160632  0.555367  1
  Pt  Pt12  1  0.001975  0.010210  0.658768  1
  Pt  Pt13  1  0.508236  0.010210  0.658768  1
  Pt  Pt14  1  0.512838  0.525676  0.661637  1
  Pt  Pt15  1  0.007354  0.514707  0.658826  1
  O  O16  1  0.474633  0.449265  0.750930  1
  H  H17  1  0.561352  0.622704  0.770851  1
