# generated using pymatgen
data_HPt4Rh9Au3O
_symmetry_space_group_name_H-M   'P 1'
_cell_length_a   5.53958873
_cell_length_b   5.53958873
_cell_length_c   21.78458289
_cell_angle_alpha   90.00000000
_cell_angle_beta   90.00000000
_cell_angle_gamma   120.00000000
_symmetry_Int_Tables_number   1
_chemical_formula_structural   HPt4Rh9Au3O
_chemical_formula_sum   'H1 Rh9 Pt4 Au3 O1'
_cell_volume   578.94182643
_cell_formula_units_Z   1
loop_
 _symmetry_equiv_pos_site_id
 _symmetry_equiv_pos_as_xyz
  1  'x, y, z'
loop_
 _atom_site_type_symbol
 _atom_site_label
 _atom_site_symmetry_multiplicity
 _atom_site_fract_x
 _atom_site_fract_y
 _atom_site_fract_z
 _atom_site_occupancy
  Rh  Rh0  1  0.000000  0.000000  0.344280  1
  Rh  Rh1  1  0.500000  0.000000  0.344280  1
  Rh  Rh2  1  0.500000  0.500000  0.344280  1
  Au  Au3  1  -0.000000  0.500000  0.344280  1
  Rh  Rh4  1  0.666667  0.333333  0.448093  1
  Rh  Rh5  1  0.166667  0.333333  0.448093  1
  Rh  Rh6  1  0.166667  0.833333  0.448093  1
  Au  Au7  1  0.666667  0.833333  0.448093  1
  Rh  Rh8  1  0.329128  0.660937  0.551590  1
  Rh  Rh9  1  0.831809  0.660937  0.551590  1
  Rh  Rh10  1  0.831551  0.163103  0.549535  1
  Au  Au11  1  0.333416  0.166833  0.552735  1
  Pt  Pt12  1  -0.008316  0.988569  0.658061  1
  Pt  Pt13  1  0.496885  -0.011431  0.658061  1
  Pt  Pt14  1  0.495620  0.491241  0.664343  1
  Pt  Pt15  1  -0.004575  0.490850  0.653433  1
  O  O16  1  0.482364  0.464729  0.756616  1
  H  H17  1  0.578405  0.656809  0.771920  1
