# generated using pymatgen
data_As3HPt4Rh9O
_symmetry_space_group_name_H-M   'P 1'
_cell_length_a   5.45214705
_cell_length_b   5.45214705
_cell_length_c   21.67748914
_cell_angle_alpha   90.00000000
_cell_angle_beta   90.00000000
_cell_angle_gamma   120.00000000
_symmetry_Int_Tables_number   1
_chemical_formula_structural   As3HPt4Rh9O
_chemical_formula_sum   'As3 H1 Rh9 Pt4 O1'
_cell_volume   558.05207859
_cell_formula_units_Z   1
loop_
 _symmetry_equiv_pos_site_id
 _symmetry_equiv_pos_as_xyz
  1  'x, y, z'
loop_
 _atom_site_type_symbol
 _atom_site_label
 _atom_site_symmetry_multiplicity
 _atom_site_fract_x
 _atom_site_fract_y
 _atom_site_fract_z
 _atom_site_occupancy
  Rh  Rh0  1  0.000000  0.000000  0.345981  1
  Rh  Rh1  1  0.500000  1.000000  0.345981  1
  Rh  Rh2  1  0.500000  0.500000  0.345981  1
  As  As3  1  0.000000  0.500000  0.345981  1
  Rh  Rh4  1  0.666667  0.333333  0.448660  1
  Rh  Rh5  1  0.166667  0.333333  0.448660  1
  Rh  Rh6  1  0.166667  0.833333  0.448660  1
  As  As7  1  0.666667  0.833333  0.448660  1
  Rh  Rh8  1  0.326344  0.644764  0.552387  1
  Rh  Rh9  1  0.818421  0.644764  0.552387  1
  Rh  Rh10  1  0.823559  0.147118  0.546511  1
  As  As11  1  0.332115  0.164230  0.549441  1
  Pt  Pt12  1  1.005838  1.009908  0.655469  1
  Pt  Pt13  1  0.504070  1.009908  0.655469  1
  Pt  Pt14  1  0.507818  0.515636  0.665942  1
  Pt  Pt15  1  1.003548  0.507096  0.659185  1
  O  O16  1  0.471596  0.443193  0.757754  1
  H  H17  1  0.565680  0.631360  0.776886  1
