# generated using pymatgen
data_Ag3HPt4Rh9O
_symmetry_space_group_name_H-M   'P 1'
_cell_length_a   5.52531947
_cell_length_b   5.52531947
_cell_length_c   21.76710668
_cell_angle_alpha   90.00000000
_cell_angle_beta   90.00000000
_cell_angle_gamma   120.00000000
_symmetry_Int_Tables_number   1
_chemical_formula_structural   Ag3HPt4Rh9O
_chemical_formula_sum   'Ag3 H1 Rh9 Pt4 O1'
_cell_volume   575.50105561
_cell_formula_units_Z   1
loop_
 _symmetry_equiv_pos_site_id
 _symmetry_equiv_pos_as_xyz
  1  'x, y, z'
loop_
 _atom_site_type_symbol
 _atom_site_label
 _atom_site_symmetry_multiplicity
 _atom_site_fract_x
 _atom_site_fract_y
 _atom_site_fract_z
 _atom_site_occupancy
  Rh  Rh0  1  0.000000  0.000000  0.344557  1
  Rh  Rh1  1  0.500000  0.000000  0.344557  1
  Rh  Rh2  1  0.500000  0.500000  0.344557  1
  Ag  Ag3  1  -0.000000  0.500000  0.344557  1
  Rh  Rh4  1  0.666667  0.333333  0.448186  1
  Rh  Rh5  1  0.166667  0.333333  0.448186  1
  Rh  Rh6  1  0.166667  0.833333  0.448186  1
  Ag  Ag7  1  0.666667  0.833333  0.448186  1
  Rh  Rh8  1  0.329800  0.663455  0.551634  1
  Rh  Rh9  1  0.833656  0.663455  0.551634  1
  Rh  Rh10  1  0.832081  0.164162  0.549458  1
  Ag  Ag11  1  0.334235  0.168470  0.553124  1
  Pt  Pt12  1  -0.005057  -0.005389  0.658142  1
  Pt  Pt13  1  0.499668  0.994611  0.658142  1
  Pt  Pt14  1  0.499384  0.498768  0.663584  1
  Pt  Pt15  1  -0.001599  0.496802  0.653147  1
  O  O16  1  0.476795  0.453589  0.755824  1
  H  H17  1  0.572015  0.644029  0.772374  1
