# generated using pymatgen
data_Cu3HPt4Rh9O
_symmetry_space_group_name_H-M   'P 1'
_cell_length_a   5.36917048
_cell_length_b   5.36917048
_cell_length_c   21.57586401
_cell_angle_alpha   90.00000000
_cell_angle_beta   90.00000000
_cell_angle_gamma   120.00000000
_symmetry_Int_Tables_number   1
_chemical_formula_structural   Cu3HPt4Rh9O
_chemical_formula_sum   'Cu3 H1 Rh9 Pt4 O1'
_cell_volume   538.65812545
_cell_formula_units_Z   1
loop_
 _symmetry_equiv_pos_site_id
 _symmetry_equiv_pos_as_xyz
  1  'x, y, z'
loop_
 _atom_site_type_symbol
 _atom_site_label
 _atom_site_symmetry_multiplicity
 _atom_site_fract_x
 _atom_site_fract_y
 _atom_site_fract_z
 _atom_site_occupancy
  Rh  Rh0  1  0.000000  0.000000  0.347611  1
  Rh  Rh1  1  0.500000  0.000000  0.347611  1
  Rh  Rh2  1  0.500000  0.500000  0.347611  1
  Cu  Cu3  1  0.000000  0.500000  0.347611  1
  Rh  Rh4  1  0.666667  0.333333  0.449204  1
  Rh  Rh5  1  0.166667  0.333333  0.449204  1
  Rh  Rh6  1  0.166667  0.833333  0.449204  1
  Cu  Cu7  1  0.666667  0.833333  0.449204  1
  Rh  Rh8  1  0.334011  0.663829  0.550526  1
  Rh  Rh9  1  0.829817  0.663829  0.550526  1
  Rh  Rh10  1  0.829358  0.158716  0.548063  1
  Cu  Cu11  1  0.334076  0.168153  0.552744  1
  Pt  Pt12  1  0.000635  0.000029  0.657066  1
  Pt  Pt13  1  0.499394  1.000029  0.657066  1
  Pt  Pt14  1  0.500105  0.500211  0.664026  1
  Pt  Pt15  1  -0.000544  0.498911  0.654476  1
  O  O16  1  0.476615  0.453229  0.757655  1
  H  H17  1  0.574470  0.648940  0.774478  1
