# generated using pymatgen
data_Ga3HPt4Rh9O
_symmetry_space_group_name_H-M   'P 1'
_cell_length_a   5.43364764
_cell_length_b   5.43364764
_cell_length_c   21.65483208
_cell_angle_alpha   90.00000000
_cell_angle_beta   90.00000000
_cell_angle_gamma   120.00000000
_symmetry_Int_Tables_number   1
_chemical_formula_structural   Ga3HPt4Rh9O
_chemical_formula_sum   'Ga3 H1 Rh9 Pt4 O1'
_cell_volume   553.69218857
_cell_formula_units_Z   1
loop_
 _symmetry_equiv_pos_site_id
 _symmetry_equiv_pos_as_xyz
  1  'x, y, z'
loop_
 _atom_site_type_symbol
 _atom_site_label
 _atom_site_symmetry_multiplicity
 _atom_site_fract_x
 _atom_site_fract_y
 _atom_site_fract_z
 _atom_site_occupancy
  Rh  Rh0  1  0.000000  0.000000  0.346343  1
  Rh  Rh1  1  0.500000  0.000000  0.346343  1
  Rh  Rh2  1  0.500000  0.500000  0.346343  1
  Ga  Ga3  1  0.000000  0.500000  0.346343  1
  Rh  Rh4  1  0.666667  0.333333  0.448781  1
  Rh  Rh5  1  0.166667  0.333333  0.448781  1
  Rh  Rh6  1  0.166667  0.833333  0.448781  1
  Ga  Ga7  1  0.666667  0.833333  0.448781  1
  Rh  Rh8  1  0.332292  0.655778  0.551253  1
  Rh  Rh9  1  0.823487  0.655778  0.551253  1
  Rh  Rh10  1  0.827829  0.155659  0.548186  1
  Ga  Ga11  1  0.329982  0.159964  0.551152  1
  Pt  Pt12  1  0.005184  0.007883  0.655249  1
  Pt  Pt13  1  0.502699  0.007883  0.655249  1
  Pt  Pt14  1  0.504414  0.508827  0.661082  1
  Pt  Pt15  1  0.002563  0.505126  0.655206  1
  O  O16  1  0.475442  0.450884  0.754666  1
  H  H17  1  0.570639  0.641278  0.772907  1
