# generated using pymatgen
data_Ge3HPt4Rh9O
_symmetry_space_group_name_H-M   'P 1'
_cell_length_a   5.43800153
_cell_length_b   5.43800153
_cell_length_c   21.66016448
_cell_angle_alpha   90.00000000
_cell_angle_beta   90.00000000
_cell_angle_gamma   120.00000000
_symmetry_Int_Tables_number   1
_chemical_formula_structural   Ge3HPt4Rh9O
_chemical_formula_sum   'Ge3 H1 Rh9 Pt4 O1'
_cell_volume   554.71643348
_cell_formula_units_Z   1
loop_
 _symmetry_equiv_pos_site_id
 _symmetry_equiv_pos_as_xyz
  1  'x, y, z'
loop_
 _atom_site_type_symbol
 _atom_site_label
 _atom_site_symmetry_multiplicity
 _atom_site_fract_x
 _atom_site_fract_y
 _atom_site_fract_z
 _atom_site_occupancy
  Rh  Rh0  1  0.000000  0.000000  0.346258  1
  Rh  Rh1  1  0.500000  0.000000  0.346258  1
  Rh  Rh2  1  0.500000  0.500000  0.346258  1
  Ge  Ge3  1  -0.000000  0.500000  0.346258  1
  Rh  Rh4  1  0.666667  0.333333  0.448753  1
  Rh  Rh5  1  0.166667  0.333333  0.448753  1
  Rh  Rh6  1  0.166667  0.833333  0.448753  1
  Ge  Ge7  1  0.666667  0.833333  0.448753  1
  Rh  Rh8  1  0.330934  0.652688  0.550943  1
  Rh  Rh9  1  0.821754  0.652688  0.550943  1
  Rh  Rh10  1  0.826652  0.153305  0.547873  1
  Ge  Ge11  1  0.329631  0.159262  0.549079  1
  Pt  Pt12  1  0.001173  0.000114  0.655100  1
  Pt  Pt13  1  0.498941  0.000114  0.655100  1
  Pt  Pt14  1  0.500568  0.501137  0.661547  1
  Pt  Pt15  1  -0.001011  0.497979  0.656679  1
  O  O16  1  0.473235  0.446471  0.754705  1
  H  H17  1  0.569514  0.639027  0.771815  1
