# generated using pymatgen
data_In3HPt4Rh9O
_symmetry_space_group_name_H-M   'P 1'
_cell_length_a   5.04942790
_cell_length_b   5.04942790
_cell_length_c   21.18426093
_cell_angle_alpha   90.00000000
_cell_angle_beta   90.00000000
_cell_angle_gamma   120.00000000
_symmetry_Int_Tables_number   1
_chemical_formula_structural   In3HPt4Rh9O
_chemical_formula_sum   'In3 H1 Rh9 Pt4 O1'
_cell_volume   467.76562114
_cell_formula_units_Z   1
loop_
 _symmetry_equiv_pos_site_id
 _symmetry_equiv_pos_as_xyz
  1  'x, y, z'
loop_
 _atom_site_type_symbol
 _atom_site_label
 _atom_site_symmetry_multiplicity
 _atom_site_fract_x
 _atom_site_fract_y
 _atom_site_fract_z
 _atom_site_occupancy
  Rh  Rh0  1  0.000000  0.000000  0.354036  1
  Rh  Rh1  1  0.500000  1.000000  0.354036  1
  Rh  Rh2  1  0.500000  0.500000  0.354036  1
  In  In3  1  0.000000  0.500000  0.354036  1
  Rh  Rh4  1  0.666667  0.333333  0.451345  1
  Rh  Rh5  1  0.166667  0.333333  0.451345  1
  Rh  Rh6  1  0.166667  0.833333  0.451345  1
  In  In7  1  0.666667  0.833333  0.451345  1
  Rh  Rh8  1  0.338846  0.677310  0.573671  1
  Rh  Rh9  1  0.838464  0.677310  0.573671  1
  Rh  Rh10  1  0.837798  0.175596  0.556228  1
  In  In11  1  0.342706  0.185413  0.625969  1
  Pt  Pt12  1  -0.057895  0.890411  0.725266  1
  Pt  Pt13  1  0.448306  0.890411  0.725266  1
  Pt  Pt14  1  0.434001  0.368003  0.769400  1
  Pt  Pt15  1  -0.050058  0.399884  0.674842  1
  O  O16  1  0.538711  0.577423  0.851346  1
  H  H17  1  0.650538  0.801077  0.847819  1
