# generated using pymatgen
data_HIr3Pt4Rh9O
_symmetry_space_group_name_H-M   'P 1'
_cell_length_a   5.42953434
_cell_length_b   5.42953434
_cell_length_c   21.64979433
_cell_angle_alpha   90.00000000
_cell_angle_beta   90.00000000
_cell_angle_gamma   120.00000000
_symmetry_Int_Tables_number   1
_chemical_formula_structural   HIr3Pt4Rh9O
_chemical_formula_sum   'Ir3 H1 Rh9 Pt4 O1'
_cell_volume   552.72559384
_cell_formula_units_Z   1
loop_
 _symmetry_equiv_pos_site_id
 _symmetry_equiv_pos_as_xyz
  1  'x, y, z'
loop_
 _atom_site_type_symbol
 _atom_site_label
 _atom_site_symmetry_multiplicity
 _atom_site_fract_x
 _atom_site_fract_y
 _atom_site_fract_z
 _atom_site_occupancy
  Rh  Rh0  1  0.000000  0.000000  0.346424  1
  Rh  Rh1  1  0.500000  1.000000  0.346424  1
  Rh  Rh2  1  0.500000  0.500000  0.346424  1
  Ir  Ir3  1  0.000000  0.500000  0.346424  1
  Rh  Rh4  1  0.666667  0.333333  0.448808  1
  Rh  Rh5  1  0.166667  0.333333  0.448808  1
  Rh  Rh6  1  0.166667  0.833333  0.448808  1
  Ir  Ir7  1  0.666667  0.833333  0.448808  1
  Rh  Rh8  1  0.333616  0.663894  0.549220  1
  Rh  Rh9  1  0.830278  0.663894  0.549220  1
  Rh  Rh10  1  0.832666  0.165332  0.547652  1
  Ir  Ir11  1  0.333706  0.167413  0.549486  1
  Pt  Pt12  1  -0.001157  0.996889  0.654654  1
  Pt  Pt13  1  0.498046  0.996889  0.654654  1
  Pt  Pt14  1  0.499184  0.498367  0.661425  1
  Pt  Pt15  1  -0.002071  0.495858  0.656156  1
  O  O16  1  0.487841  0.475682  0.755163  1
  H  H17  1  0.585641  0.671281  0.770613  1
