# generated using pymatgen
data_La3HPt4Rh9O
_symmetry_space_group_name_H-M   'P 1'
_cell_length_a   5.85356480
_cell_length_b   5.85356480
_cell_length_c   22.16912347
_cell_angle_alpha   90.00000000
_cell_angle_beta   90.00000000
_cell_angle_gamma   120.00000000
_symmetry_Int_Tables_number   1
_chemical_formula_structural   La3HPt4Rh9O
_chemical_formula_sum   'La3 H1 Rh9 Pt4 O1'
_cell_volume   657.83960252
_cell_formula_units_Z   1
loop_
 _symmetry_equiv_pos_site_id
 _symmetry_equiv_pos_as_xyz
  1  'x, y, z'
loop_
 _atom_site_type_symbol
 _atom_site_label
 _atom_site_symmetry_multiplicity
 _atom_site_fract_x
 _atom_site_fract_y
 _atom_site_fract_z
 _atom_site_occupancy
  Rh  Rh0  1  0.000000  0.000000  0.338308  1
  Rh  Rh1  1  0.500000  0.000000  0.338308  1
  Rh  Rh2  1  0.500000  0.500000  0.338308  1
  La  La3  1  0.000000  0.500000  0.338308  1
  Rh  Rh4  1  0.666667  0.333333  0.446103  1
  Rh  Rh5  1  0.166667  0.333333  0.446103  1
  Rh  Rh6  1  0.166667  0.833333  0.446103  1
  La  La7  1  0.666667  0.833333  0.446103  1
  Rh  Rh8  1  0.324976  0.655363  0.557486  1
  Rh  Rh9  1  0.830387  0.655363  0.557486  1
  Rh  Rh10  1  0.842492  0.184984  0.551818  1
  La  La11  1  0.329879  0.159757  0.552877  1
  Pt  Pt12  1  0.994997  1.010660  0.658061  1
  Pt  Pt13  1  0.515663  1.010660  0.658061  1
  Pt  Pt14  1  0.515457  0.530913  0.661400  1
  Pt  Pt15  1  1.009148  0.518296  0.654882  1
  O  O16  1  0.476741  0.453481  0.750847  1
  H  H17  1  0.563022  0.626045  0.770743  1
