# generated using pymatgen
data_Mn3HPt4Rh9O
_symmetry_space_group_name_H-M   'P 1'
_cell_length_a   5.36964686
_cell_length_b   5.36964686
_cell_length_c   21.57644745
_cell_angle_alpha   90.00000000
_cell_angle_beta   90.00000000
_cell_angle_gamma   120.00000000
_symmetry_Int_Tables_number   1
_chemical_formula_structural   Mn3HPt4Rh9O
_chemical_formula_sum   'Mn3 H1 Rh9 Pt4 O1'
_cell_volume   538.76828229
_cell_formula_units_Z   1
loop_
 _symmetry_equiv_pos_site_id
 _symmetry_equiv_pos_as_xyz
  1  'x, y, z'
loop_
 _atom_site_type_symbol
 _atom_site_label
 _atom_site_symmetry_multiplicity
 _atom_site_fract_x
 _atom_site_fract_y
 _atom_site_fract_z
 _atom_site_occupancy
  Rh  Rh0  1  0.000000  0.000000  0.347601  1
  Rh  Rh1  1  0.500000  0.000000  0.347601  1
  Rh  Rh2  1  0.500000  0.500000  0.347601  1
  Mn  Mn3  1  0.000000  0.500000  0.347601  1
  Rh  Rh4  1  0.666667  0.333333  0.449200  1
  Rh  Rh5  1  0.166667  0.333333  0.449200  1
  Rh  Rh6  1  0.166667  0.833333  0.449200  1
  Mn  Mn7  1  0.666667  0.833333  0.449200  1
  Rh  Rh8  1  0.336659  0.661418  0.546751  1
  Rh  Rh9  1  0.824759  0.661418  0.546751  1
  Rh  Rh10  1  0.829636  0.159273  0.544884  1
  Mn  Mn11  1  0.333115  0.166230  0.549828  1
  Pt  Pt12  1  1.003516  0.002499  0.651383  1
  Pt  Pt13  1  0.498983  1.002499  0.651383  1
  Pt  Pt14  1  0.501033  0.502066  0.657944  1
  Pt  Pt15  1  0.999843  0.499686  0.655790  1
  O  O16  1  0.486562  0.473124  0.752876  1
  H  H17  1  0.584888  0.669777  0.769099  1
