# generated using pymatgen
data_Mo3HPt4Rh9O
_symmetry_space_group_name_H-M   'P 1'
_cell_length_a   5.45471634
_cell_length_b   5.45471634
_cell_length_c   21.68063587
_cell_angle_alpha   90.00000000
_cell_angle_beta   90.00000000
_cell_angle_gamma   120.00000000
_symmetry_Int_Tables_number   1
_chemical_formula_structural   Mo3HPt4Rh9O
_chemical_formula_sum   'Mo3 H1 Rh9 Pt4 O1'
_cell_volume   558.65924477
_cell_formula_units_Z   1
loop_
 _symmetry_equiv_pos_site_id
 _symmetry_equiv_pos_as_xyz
  1  'x, y, z'
loop_
 _atom_site_type_symbol
 _atom_site_label
 _atom_site_symmetry_multiplicity
 _atom_site_fract_x
 _atom_site_fract_y
 _atom_site_fract_z
 _atom_site_occupancy
  Rh  Rh0  1  0.000000  0.000000  0.345931  1
  Rh  Rh1  1  0.500000  0.000000  0.345931  1
  Rh  Rh2  1  0.500000  0.500000  0.345931  1
  Mo  Mo3  1  0.000000  0.500000  0.345931  1
  Rh  Rh4  1  0.666667  0.333333  0.448644  1
  Rh  Rh5  1  0.166667  0.333333  0.448644  1
  Rh  Rh6  1  0.166667  0.833333  0.448644  1
  Mo  Mo7  1  0.666667  0.833333  0.448644  1
  Rh  Rh8  1  0.334311  0.659390  0.549039  1
  Rh  Rh9  1  0.825079  0.659390  0.549039  1
  Rh  Rh10  1  0.830727  0.161454  0.546913  1
  Mo  Mo11  1  0.334027  0.168053  0.555400  1
  Pt  Pt12  1  0.002872  0.001949  0.654625  1
  Pt  Pt13  1  0.499077  0.001949  0.654625  1
  Pt  Pt14  1  0.502969  0.505939  0.659403  1
  Pt  Pt15  1  -0.000570  0.498859  0.660052  1
  O  O16  1  0.486059  0.472117  0.754039  1
  H  H17  1  0.582151  0.664302  0.770917  1
