# generated using pymatgen
data_Nb3HPt4Rh9O
_symmetry_space_group_name_H-M   'P 1'
_cell_length_a   5.50396130
_cell_length_b   5.50396130
_cell_length_c   21.74094838
_cell_angle_alpha   90.00000000
_cell_angle_beta   90.00000000
_cell_angle_gamma   120.00000000
_symmetry_Int_Tables_number   1
_chemical_formula_structural   Nb3HPt4Rh9O
_chemical_formula_sum   'Nb3 H1 Rh9 Pt4 O1'
_cell_volume   570.37418340
_cell_formula_units_Z   1
loop_
 _symmetry_equiv_pos_site_id
 _symmetry_equiv_pos_as_xyz
  1  'x, y, z'
loop_
 _atom_site_type_symbol
 _atom_site_label
 _atom_site_symmetry_multiplicity
 _atom_site_fract_x
 _atom_site_fract_y
 _atom_site_fract_z
 _atom_site_occupancy
  Rh  Rh0  1  0.000000  0.000000  0.344971  1
  Rh  Rh1  1  0.500000  0.000000  0.344971  1
  Rh  Rh2  1  0.500000  0.500000  0.344971  1
  Nb  Nb3  1  0.000000  0.500000  0.344971  1
  Rh  Rh4  1  0.666667  0.333333  0.448324  1
  Rh  Rh5  1  0.166667  0.333333  0.448324  1
  Rh  Rh6  1  0.166667  0.833333  0.448324  1
  Nb  Nb7  1  0.666667  0.833333  0.448324  1
  Rh  Rh8  1  0.332272  0.658093  0.550310  1
  Rh  Rh9  1  0.825821  0.658093  0.550310  1
  Rh  Rh10  1  0.832293  0.164587  0.548454  1
  Nb  Nb11  1  0.331759  0.163517  0.552869  1
  Pt  Pt12  1  1.003348  0.004521  0.654560  1
  Pt  Pt13  1  0.501173  0.004521  0.654560  1
  Pt  Pt14  1  0.504174  0.508349  0.658415  1
  Pt  Pt15  1  1.001462  0.502925  0.658964  1
  O  O16  1  0.476793  0.453586  0.752266  1
  H  H17  1  0.570425  0.640850  0.770773  1
