# generated using pymatgen
data_HOs3Pt4Rh9O
_symmetry_space_group_name_H-M   'P 1'
_cell_length_a   5.42111864
_cell_length_b   5.42111864
_cell_length_c   21.63948725
_cell_angle_alpha   90.00000000
_cell_angle_beta   90.00000000
_cell_angle_gamma   120.00000000
_symmetry_Int_Tables_number   1
_chemical_formula_structural   HOs3Pt4Rh9O
_chemical_formula_sum   'Os3 H1 Rh9 Pt4 O1'
_cell_volume   550.75115980
_cell_formula_units_Z   1
loop_
 _symmetry_equiv_pos_site_id
 _symmetry_equiv_pos_as_xyz
  1  'x, y, z'
loop_
 _atom_site_type_symbol
 _atom_site_label
 _atom_site_symmetry_multiplicity
 _atom_site_fract_x
 _atom_site_fract_y
 _atom_site_fract_z
 _atom_site_occupancy
  Rh  Rh0  1  0.000000  0.000000  0.346589  1
  Rh  Rh1  1  0.500000  0.000000  0.346589  1
  Rh  Rh2  1  0.500000  0.500000  0.346589  1
  Os  Os3  1  -0.000000  0.500000  0.346589  1
  Rh  Rh4  1  0.666667  0.333333  0.448863  1
  Rh  Rh5  1  0.166667  0.333333  0.448863  1
  Rh  Rh6  1  0.166667  0.833333  0.448863  1
  Os  Os7  1  0.666667  0.833333  0.448863  1
  Rh  Rh8  1  0.334811  0.663268  0.548490  1
  Rh  Rh9  1  0.828457  0.663268  0.548490  1
  Rh  Rh10  1  0.831693  0.163385  0.546992  1
  Os  Os11  1  0.333710  0.167420  0.552290  1
  Pt  Pt12  1  -0.001414  -0.004625  0.654503  1
  Pt  Pt13  1  0.496790  -0.004625  0.654503  1
  Pt  Pt14  1  0.498577  0.497153  0.660995  1
  Pt  Pt15  1  -0.003212  0.493575  0.658188  1
  O  O16  1  0.492160  0.484319  0.755379  1
  H  H17  1  0.590234  0.680468  0.770703  1
