# generated using pymatgen
data_HPt7Rh9O
_symmetry_space_group_name_H-M   'P 1'
_cell_length_a   5.46459945
_cell_length_b   5.46459945
_cell_length_c   21.69274016
_cell_angle_alpha   90.00000000
_cell_angle_beta   90.00000000
_cell_angle_gamma   120.00000000
_symmetry_Int_Tables_number   1
_chemical_formula_structural   HPt7Rh9O
_chemical_formula_sum   'H1 Rh9 Pt7 O1'
_cell_volume   560.99851892
_cell_formula_units_Z   1
loop_
 _symmetry_equiv_pos_site_id
 _symmetry_equiv_pos_as_xyz
  1  'x, y, z'
loop_
 _atom_site_type_symbol
 _atom_site_label
 _atom_site_symmetry_multiplicity
 _atom_site_fract_x
 _atom_site_fract_y
 _atom_site_fract_z
 _atom_site_occupancy
  Rh  Rh0  1  0.000000  0.000000  0.345738  1
  Rh  Rh1  1  0.500000  0.000000  0.345738  1
  Rh  Rh2  1  0.500000  0.500000  0.345738  1
  Pt  Pt3  1  0.000000  0.500000  0.345738  1
  Rh  Rh4  1  0.666667  0.333333  0.448579  1
  Rh  Rh5  1  0.166667  0.333333  0.448579  1
  Rh  Rh6  1  0.166667  0.833333  0.448579  1
  Pt  Pt7  1  0.666667  0.833333  0.448579  1
  Rh  Rh8  1  0.332612  0.664319  0.550550  1
  Rh  Rh9  1  0.831707  0.664319  0.550550  1
  Rh  Rh10  1  0.833203  0.166406  0.548783  1
  Pt  Pt11  1  0.334383  0.168765  0.550992  1
  Pt  Pt12  1  -0.003151  -0.004866  0.656426  1
  Pt  Pt13  1  0.498285  -0.004866  0.656426  1
  Pt  Pt14  1  0.498085  0.496170  0.664070  1
  Pt  Pt15  1  -0.001912  0.496176  0.654871  1
  O  O16  1  0.489515  0.479030  0.757102  1
  H  H17  1  0.587320  0.674640  0.771920  1
