# generated using pymatgen
data_HPt4Rh9Pb3O
_symmetry_space_group_name_H-M   'P 1'
_cell_length_a   5.68866598
_cell_length_b   5.68866598
_cell_length_c   21.96716448
_cell_angle_alpha   90.00000000
_cell_angle_beta   90.00000000
_cell_angle_gamma   120.00000000
_symmetry_Int_Tables_number   1
_chemical_formula_structural   HPt4Rh9Pb3O
_chemical_formula_sum   'H1 Rh9 Pt4 Pb3 O1'
_cell_volume   615.63811759
_cell_formula_units_Z   1
loop_
 _symmetry_equiv_pos_site_id
 _symmetry_equiv_pos_as_xyz
  1  'x, y, z'
loop_
 _atom_site_type_symbol
 _atom_site_label
 _atom_site_symmetry_multiplicity
 _atom_site_fract_x
 _atom_site_fract_y
 _atom_site_fract_z
 _atom_site_occupancy
  Rh  Rh0  1  0.000000  0.000000  0.341419  1
  Rh  Rh1  1  0.500000  0.000000  0.341419  1
  Rh  Rh2  1  0.500000  0.500000  0.341419  1
  Pb  Pb3  1  -0.000000  0.500000  0.341419  1
  Rh  Rh4  1  0.666667  0.333333  0.447140  1
  Rh  Rh5  1  0.166667  0.333333  0.447140  1
  Rh  Rh6  1  0.166667  0.833333  0.447140  1
  Pb  Pb7  1  0.666667  0.833333  0.447140  1
  Rh  Rh8  1  0.328917  0.657180  0.552996  1
  Rh  Rh9  1  0.828263  0.657180  0.552996  1
  Rh  Rh10  1  0.832585  0.165170  0.550647  1
  Pb  Pb11  1  0.330943  0.161886  0.551392  1
  Pt  Pt12  1  -0.004937  -0.001038  0.656653  1
  Pt  Pt13  1  0.503899  -0.001038  0.656653  1
  Pt  Pt14  1  0.503428  0.506856  0.660734  1
  Pt  Pt15  1  0.000732  0.501464  0.654135  1
  O  O16  1  0.475023  0.450046  0.751763  1
  H  H17  1  0.566125  0.632249  0.769622  1
