# generated using pymatgen
data_HPd3Pt4Rh9O
_symmetry_space_group_name_H-M   'P 1'
_cell_length_a   5.45549031
_cell_length_b   5.45549031
_cell_length_c   21.68158378
_cell_angle_alpha   90.00000000
_cell_angle_beta   90.00000000
_cell_angle_gamma   120.00000000
_symmetry_Int_Tables_number   1
_chemical_formula_structural   HPd3Pt4Rh9O
_chemical_formula_sum   'Pd3 H1 Rh9 Pt4 O1'
_cell_volume   558.84222369
_cell_formula_units_Z   1
loop_
 _symmetry_equiv_pos_site_id
 _symmetry_equiv_pos_as_xyz
  1  'x, y, z'
loop_
 _atom_site_type_symbol
 _atom_site_label
 _atom_site_symmetry_multiplicity
 _atom_site_fract_x
 _atom_site_fract_y
 _atom_site_fract_z
 _atom_site_occupancy
  Rh  Rh0  1  0.000000  0.000000  0.345916  1
  Rh  Rh1  1  0.500000  0.000000  0.345916  1
  Rh  Rh2  1  0.500000  0.500000  0.345916  1
  Pd  Pd3  1  -0.000000  0.500000  0.345916  1
  Rh  Rh4  1  0.666667  0.333333  0.448639  1
  Rh  Rh5  1  0.166667  0.333333  0.448639  1
  Rh  Rh6  1  0.166667  0.833333  0.448639  1
  Pd  Pd7  1  0.666667  0.833333  0.448639  1
  Rh  Rh8  1  0.332162  0.663541  0.550939  1
  Rh  Rh9  1  0.831380  0.663541  0.550939  1
  Rh  Rh10  1  0.832603  0.165207  0.548824  1
  Pd  Pd11  1  0.333909  0.167818  0.551802  1
  Pt  Pt12  1  -0.003541  -0.005074  0.657307  1
  Pt  Pt13  1  0.498468  -0.005074  0.657307  1
  Pt  Pt14  1  0.497999  0.495998  0.664896  1
  Pt  Pt15  1  -0.001830  0.496341  0.654274  1
  O  O16  1  0.485657  0.471314  0.757879  1
  H  H17  1  0.583437  0.666875  0.772951  1
