# generated using pymatgen
data_HPt4Rh12O
_symmetry_space_group_name_H-M   'P 1'
_cell_length_a   5.41683799
_cell_length_b   5.41683799
_cell_length_c   21.63424455
_cell_angle_alpha   90.00000000
_cell_angle_beta   90.00000000
_cell_angle_gamma   120.00000000
_symmetry_Int_Tables_number   1
_chemical_formula_structural   HPt4Rh12O
_chemical_formula_sum   'H1 Rh12 Pt4 O1'
_cell_volume   549.74850825
_cell_formula_units_Z   1
loop_
 _symmetry_equiv_pos_site_id
 _symmetry_equiv_pos_as_xyz
  1  'x, y, z'
loop_
 _atom_site_type_symbol
 _atom_site_label
 _atom_site_symmetry_multiplicity
 _atom_site_fract_x
 _atom_site_fract_y
 _atom_site_fract_z
 _atom_site_occupancy
  Rh  Rh0  1  0.000000  0.000000  0.346673  1
  Rh  Rh1  1  0.500000  0.000000  0.346673  1
  Rh  Rh2  1  0.500000  0.500000  0.346673  1
  Rh  Rh3  1  0.000000  0.500000  0.346673  1
  Rh  Rh4  1  0.666667  0.333333  0.448891  1
  Rh  Rh5  1  0.166667  0.333333  0.448891  1
  Rh  Rh6  1  0.166667  0.833333  0.448891  1
  Rh  Rh7  1  0.666667  0.833333  0.448891  1
  Rh  Rh8  1  0.333844  0.664153  0.549537  1
  Rh  Rh9  1  0.830309  0.664153  0.549537  1
  Rh  Rh10  1  0.832812  0.165624  0.547849  1
  Rh  Rh11  1  0.333641  0.167281  0.549202  1
  Pt  Pt12  1  -0.000282  0.999123  0.655213  1
  Pt  Pt13  1  0.499405  -0.000877  0.655213  1
  Pt  Pt14  1  0.500103  0.500206  0.662152  1
  Pt  Pt15  1  -0.000741  0.498518  0.655469  1
  O  O16  1  0.486454  0.472908  0.755846  1
  H  H17  1  0.584474  0.668948  0.771468  1
