# generated using pymatgen
data_Sb3HPt4Rh9O
_symmetry_space_group_name_H-M   'P 1'
_cell_length_a   5.59640334
_cell_length_b   5.59640334
_cell_length_c   21.85416629
_cell_angle_alpha   90.00000000
_cell_angle_beta   90.00000000
_cell_angle_gamma   120.00000000
_symmetry_Int_Tables_number   1
_chemical_formula_structural   Sb3HPt4Rh9O
_chemical_formula_sum   'Sb3 H1 Rh9 Pt4 O1'
_cell_volume   592.76545944
_cell_formula_units_Z   1
loop_
 _symmetry_equiv_pos_site_id
 _symmetry_equiv_pos_as_xyz
  1  'x, y, z'
loop_
 _atom_site_type_symbol
 _atom_site_label
 _atom_site_symmetry_multiplicity
 _atom_site_fract_x
 _atom_site_fract_y
 _atom_site_fract_z
 _atom_site_occupancy
  Rh  Rh0  1  0.000000  0.000000  0.343184  1
  Rh  Rh1  1  0.500000  0.000000  0.343184  1
  Rh  Rh2  1  0.500000  0.500000  0.343184  1
  Sb  Sb3  1  0.000000  0.500000  0.343184  1
  Rh  Rh4  1  0.666667  0.333333  0.447728  1
  Rh  Rh5  1  0.166667  0.333333  0.447728  1
  Rh  Rh6  1  0.166667  0.833333  0.447728  1
  Sb  Sb7  1  0.666667  0.833333  0.447728  1
  Rh  Rh8  1  0.330259  0.656942  0.551237  1
  Rh  Rh9  1  0.826684  0.656942  0.551237  1
  Rh  Rh10  1  0.832164  0.164328  0.548785  1
  Sb  Sb11  1  0.330723  0.161446  0.552241  1
  Pt  Pt12  1  -0.002521  0.997796  0.656011  1
  Pt  Pt13  1  0.500317  0.997796  0.656011  1
  Pt  Pt14  1  0.502109  0.504218  0.660979  1
  Pt  Pt15  1  -0.000916  0.498167  0.656913  1
  O  O16  1  0.471901  0.443802  0.752497  1
  H  H17  1  0.564702  0.629404  0.770246  1
