# generated using pymatgen
data_Sn3HPt4Rh9O
_symmetry_space_group_name_H-M   'P 1'
_cell_length_a   5.59883823
_cell_length_b   5.59883823
_cell_length_c   21.85714840
_cell_angle_alpha   90.00000000
_cell_angle_beta   90.00000000
_cell_angle_gamma   120.00000000
_symmetry_Int_Tables_number   1
_chemical_formula_structural   Sn3HPt4Rh9O
_chemical_formula_sum   'Sn3 H1 Rh9 Pt4 O1'
_cell_volume   593.36232935
_cell_formula_units_Z   1
loop_
 _symmetry_equiv_pos_site_id
 _symmetry_equiv_pos_as_xyz
  1  'x, y, z'
loop_
 _atom_site_type_symbol
 _atom_site_label
 _atom_site_symmetry_multiplicity
 _atom_site_fract_x
 _atom_site_fract_y
 _atom_site_fract_z
 _atom_site_occupancy
  Rh  Rh0  1  0.000000  0.000000  0.343137  1
  Rh  Rh1  1  0.500000  0.000000  0.343137  1
  Rh  Rh2  1  0.500000  0.500000  0.343137  1
  Sn  Sn3  1  -0.000000  0.500000  0.343137  1
  Rh  Rh4  1  0.666667  0.333333  0.447712  1
  Rh  Rh5  1  0.166667  0.333333  0.447712  1
  Rh  Rh6  1  0.166667  0.833333  0.447712  1
  Sn  Sn7  1  0.666667  0.833333  0.447712  1
  Rh  Rh8  1  0.330450  0.657982  0.551846  1
  Rh  Rh9  1  0.827531  0.657982  0.551846  1
  Rh  Rh10  1  0.831510  0.163021  0.549837  1
  Sn  Sn11  1  0.331104  0.162208  0.551255  1
  Pt  Pt12  1  -0.000160  0.002953  0.655700  1
  Pt  Pt13  1  0.503114  0.002953  0.655700  1
  Pt  Pt14  1  0.503310  0.506621  0.659752  1
  Pt  Pt15  1  1.001678  0.503357  0.654930  1
  O  O16  1  0.474600  0.449200  0.751823  1
  H  H17  1  0.566976  0.633952  0.769924  1
