# generated using pymatgen
data_Ti3HPt4Rh9O
_symmetry_space_group_name_H-M   'P 1'
_cell_length_a   5.44326522
_cell_length_b   5.44326522
_cell_length_c   21.66661116
_cell_angle_alpha   90.00000000
_cell_angle_beta   90.00000000
_cell_angle_gamma   120.00000000
_symmetry_Int_Tables_number   1
_chemical_formula_structural   Ti3HPt4Rh9O
_chemical_formula_sum   'Ti3 H1 Rh9 Pt4 O1'
_cell_volume   555.95624294
_cell_formula_units_Z   1
loop_
 _symmetry_equiv_pos_site_id
 _symmetry_equiv_pos_as_xyz
  1  'x, y, z'
loop_
 _atom_site_type_symbol
 _atom_site_label
 _atom_site_symmetry_multiplicity
 _atom_site_fract_x
 _atom_site_fract_y
 _atom_site_fract_z
 _atom_site_occupancy
  Rh  Rh0  1  0.000000  0.000000  0.346155  1
  Rh  Rh1  1  0.500000  0.000000  0.346155  1
  Rh  Rh2  1  0.500000  0.500000  0.346155  1
  Ti  Ti3  1  0.000000  0.500000  0.346155  1
  Rh  Rh4  1  0.666667  0.333333  0.448718  1
  Rh  Rh5  1  0.166667  0.333333  0.448718  1
  Rh  Rh6  1  0.166667  0.833333  0.448718  1
  Ti  Ti7  1  0.666667  0.833333  0.448718  1
  Rh  Rh8  1  0.333498  0.659121  0.550064  1
  Rh  Rh9  1  0.825624  0.659121  0.550064  1
  Rh  Rh10  1  0.831588  0.163176  0.548316  1
  Ti  Ti11  1  0.331609  0.163218  0.551566  1
  Pt  Pt12  1  0.005848  0.008336  0.654029  1
  Pt  Pt13  1  0.502488  0.008336  0.654029  1
  Pt  Pt14  1  0.504848  0.509696  0.658188  1
  Pt  Pt15  1  0.003410  0.506821  0.658206  1
  O  O16  1  0.474126  0.448251  0.752535  1
  H  H17  1  0.567677  0.635354  0.772135  1
