# generated using pymatgen
data_Ta3HPt4Rh9O
_symmetry_space_group_name_H-M   'P 1'
_cell_length_a   5.50583129
_cell_length_b   5.50583129
_cell_length_c   21.74323863
_cell_angle_alpha   90.00000000
_cell_angle_beta   90.00000000
_cell_angle_gamma   120.00000000
_symmetry_Int_Tables_number   1
_chemical_formula_structural   Ta3HPt4Rh9O
_chemical_formula_sum   'Ta3 H1 Rh9 Pt4 O1'
_cell_volume   570.82194706
_cell_formula_units_Z   1
loop_
 _symmetry_equiv_pos_site_id
 _symmetry_equiv_pos_as_xyz
  1  'x, y, z'
loop_
 _atom_site_type_symbol
 _atom_site_label
 _atom_site_symmetry_multiplicity
 _atom_site_fract_x
 _atom_site_fract_y
 _atom_site_fract_z
 _atom_site_occupancy
  Rh  Rh0  1  0.000000  0.000000  0.344935  1
  Rh  Rh1  1  0.500000  0.000000  0.344935  1
  Rh  Rh2  1  0.500000  0.500000  0.344935  1
  Ta  Ta3  1  0.000000  0.500000  0.344935  1
  Rh  Rh4  1  0.666667  0.333333  0.448312  1
  Rh  Rh5  1  0.166667  0.333333  0.448312  1
  Rh  Rh6  1  0.166667  0.833333  0.448312  1
  Ta  Ta7  1  0.666667  0.833333  0.448312  1
  Rh  Rh8  1  0.332935  0.659181  0.550333  1
  Rh  Rh9  1  0.826246  0.659181  0.550333  1
  Rh  Rh10  1  0.832349  0.164699  0.548643  1
  Ta  Ta11  1  0.332105  0.164210  0.552655  1
  Pt  Pt12  1  0.003706  0.005107  0.654334  1
  Pt  Pt13  1  0.501400  0.005107  0.654334  1
  Pt  Pt14  1  0.504202  0.508403  0.658190  1
  Pt  Pt15  1  0.001968  0.503936  0.659038  1
  O  O16  1  0.474289  0.448577  0.751830  1
  H  H17  1  0.567509  0.635017  0.770697  1
