# generated using pymatgen
data_Y3HPt4Rh9O
_symmetry_space_group_name_H-M   'P 1'
_cell_length_a   5.72032271
_cell_length_b   5.72032271
_cell_length_c   22.00593590
_cell_angle_alpha   90.00000000
_cell_angle_beta   90.00000000
_cell_angle_gamma   120.00000000
_symmetry_Int_Tables_number   1
_chemical_formula_structural   Y3HPt4Rh9O
_chemical_formula_sum   'Y3 H1 Rh9 Pt4 O1'
_cell_volume   623.60779421
_cell_formula_units_Z   1
loop_
 _symmetry_equiv_pos_site_id
 _symmetry_equiv_pos_as_xyz
  1  'x, y, z'
loop_
 _atom_site_type_symbol
 _atom_site_label
 _atom_site_symmetry_multiplicity
 _atom_site_fract_x
 _atom_site_fract_y
 _atom_site_fract_z
 _atom_site_occupancy
  Rh  Rh0  1  0.000000  0.000000  0.340817  1
  Rh  Rh1  1  0.500000  0.000000  0.340817  1
  Rh  Rh2  1  0.500000  0.500000  0.340817  1
  Y  Y3  1  0.000000  0.500000  0.340817  1
  Rh  Rh4  1  0.666667  0.333333  0.446939  1
  Rh  Rh5  1  0.166667  0.333333  0.446939  1
  Rh  Rh6  1  0.166667  0.833333  0.446939  1
  Y  Y7  1  0.666667  0.833333  0.446939  1
  Rh  Rh8  1  0.324276  0.655911  0.554574  1
  Rh  Rh9  1  0.831635  0.655911  0.554574  1
  Rh  Rh10  1  0.836959  0.173918  0.550939  1
  Y  Y11  1  0.330920  0.161840  0.552871  1
  Pt  Pt12  1  1.001772  1.011823  0.657048  1
  Pt  Pt13  1  0.510051  1.011823  0.657048  1
  Pt  Pt14  1  0.512573  0.525146  0.659760  1
  Pt  Pt15  1  1.007594  0.515188  0.655108  1
  O  O16  1  0.474253  0.448507  0.750611  1
  H  H17  1  0.562538  0.625076  0.770676  1
